ModuleCmd_Load.c(213):ERROR:105: Unable to locate a modulefile for 'compilers/intel/11.0'
Parameters to Ansys are: Input file= bench05.inp  Extra parameters:  -m=24000 -np 1 -j output

 ANSYS Academic Research                           


 *------------------------------------------------------------------*
 |                                                                  |
 |   W E L C O M E   T O   T H E   A N S Y S (R)  P R O G R A M     |
 |                                                                  |
 *------------------------------------------------------------------*




 ***************************************************************
 *            ANSYS Release 16.1     LEGAL NOTICES             *
 ***************************************************************
 *                                                             *
 * Copyright 2015 SAS IP, Inc.  All rights reserved.           *
 * Unauthorized use, distribution or duplication is            *
 * prohibited.                                                 *
 *                                                             *
 * Ansys is a registered trademark of ANSYS, Inc. or its       *
 * subsidiaries in the United States or other countries.       *
 * See the ANSYS, Inc. online documentation or the ANSYS, Inc. *
 * documentation CD or online help for the complete Legal      *
 * Notice.                                                     *
 *                                                             *
 ***************************************************************
 *                                                             *
 * THIS ANSYS SOFTWARE PRODUCT AND PROGRAM DOCUMENTATION       *
 * INCLUDE TRADE SECRETS AND CONFIDENTIAL AND PROPRIETARY      *
 * PRODUCTS OF ANSYS, INC., ITS SUBSIDIARIES, OR LICENSORS.    *
 * The software products and documentation are furnished by    *
 * ANSYS, Inc. or its subsidiaries under a software license    *
 * agreement that contains provisions concerning               *
 * non-disclosure, copying, length and nature of use,          *
 * compliance with exporting laws, warranties, disclaimers,    *
 * limitations of liability, and remedies, and other           *
 * provisions.  The software products and documentation may be *
 * used, disclosed, transferred, or copied only in accordance  *
 * with the terms and conditions of that software license      *
 * agreement.                                                  *
 *                                                             *
 * ANSYS, Inc. is a UL registered                              *
 * ISO 9001:2008 company.                                      *
 *                                                             *
 ***************************************************************
 *                                                             *
 * This product is subject to U.S. laws governing export and   *
 * re-export.                                                  *
 *                                                             *
 * For U.S. Government users, except as specifically granted   *
 * by the ANSYS, Inc. software license agreement, the use,     *
 * duplication, or disclosure by the United States Government  *
 * is subject to restrictions stated in the ANSYS, Inc.        *
 * software license agreement and FAR 12.212 (for non-DOD      *
 * licenses).                                                  *
 *                                                             *
 ***************************************************************


 AFTER YOU HAVE READ, UNDERSTOOD, AND AGREED TO THE PREVIOUS NOTICES,
 PRESS <CR> OR <ENTER> TO CONTINUE
 Release 16.1
     
 Point Releases and Patches installed:   
     
 ANSYS, Inc. Products Release 16.1   
 ANSYS Mechanical Products Release 16.1  
 ANSYS Customization Files for User Programmable Features Release 16.1   
 ANSYS Autodyn Release 16.1  
 ANSYS LS-DYNA Release 16.1  
 ANSYS CFX (includes ANSYS CFD-Post) Release 16.1
 ANSYS Fluent (includes ANSYS CFD-Post) Release 16.1 
 ANSYS TurboGrid Release 16.1
 ANSYS Polyflow (includes ANSYS CFD-Post) Release 16.1   
 ANSYS CFD-Post only Release 16.1
 ANSYS ICEM CFD Release 16.1 
 ANSYS Composite PrepPost Release 16.1   
 ANSYS Icepak (includes ANSYS CFD-Post) Release 16.1 
 ANSYS Remote Solve Manager Standalone Services Release 16.1 
 ANSYS, Inc. License Manager Release 16.1


          *****  ANSYS COMMAND LINE ARGUMENTS  *****
  INITIAL JOBNAME              = output                                                                                                                                                                                                                                                  
  SHARED MEMORY PARALLEL REQUESTED
    SINGLE PROCESS WITH SINGLE THREAD REQUESTED
    TOTAL OF     1 CORES REQUESTED
  DESIGNXPLORER REQUESTED
  MEMORY REQUESTED (MB)        = 24000       

 RELEASE= Release 16.1         BUILD= 16.1      UP20150325   VERSION=LINUX x64   
 CURRENT JOBNAME=output  15:30:19  NOV 30, 2017 CP=      0.329


 RUN SETUP PROCEDURE FROM FILE= /usr/local/packages/apps/ansys/16.1/v161/ansys/apdl/start161.ans

 /INPUT FILE= /usr/local/packages/apps/ansys/16.1/v161/ansys/apdl/start161.ans  LINE=       0

 BEGIN:

 BEGIN:

 BEGIN:

 BEGIN:

 BEGIN:

 BEGIN:

 BEGIN:

 BEGIN:

 BEGIN:

 BEGIN:

 CLEAR DATABASE AND RERUN START.ANS

 *** WARNING ***                         CP =       0.437   TIME= 15:30:20
 /CLEAR destroys the effects of all previous input and starts a new      
 database.                                                               
 Should the /CLE command be executed? [y/n]

 *** NOTE ***                            CP =       0.437   TIME= 15:30:20
 *** The /CLE command aborted ***                                        

 BEGIN:

 *** ANSYS - ENGINEERING ANALYSIS SYSTEM  RELEASE Release 16.1     16.1     ***
 ANSYS Academic Research                           
 00210476  VERSION=LINUX x64     15:30:20  NOV 30, 2017 CP=      0.437

                                                                               



          ***** ANSYS ANALYSIS DEFINITION (PREP7) *****

 ENTER  /SHOW,DEVICE-NAME  TO ENABLE GRAPHIC DISPLAY
 ENTER  FINISH             TO LEAVE PREP7
 PRINTOUT KEY SET TO /GOPR (USE /NOPR TO SUPPRESS)

 PREP7:

  IMMEDIATE DISPLAY OFF

 PREP7:

 PARAMETER RAD =    0.1250000000    

 PREP7:

 PARAMETER ANGEL =     30.00000000    

 PREP7:

 MATERIAL         1     EX   =   25000.00      

 PREP7:

 MATERIAL         2     EX   =   5000.000      

 PREP7:

 MATERIAL         1     MU   =  0.1000000      

 PREP7:

 DEFINE DATA TABLE  BISO  FOR MATERIAL     1
   WITH A MAXIMUM OF   1 TEMPERATURE SPECIFICATIONS

 PREP7:

 PREP7:

 PREP7:

 DEFINE DATA TABLE  BISO  FOR MATERIAL     2
   WITH A MAXIMUM OF   1 TEMPERATURE SPECIFICATIONS

 PREP7:

 PREP7:

 PREP7:

 PREP7:

 ELEMENT TYPE      1 IS PLANE42      2-D STRUCTURAL SOLID        
  KEYOPT( 1- 6)=        0      0      0        0      0      0
  KEYOPT( 7-12)=        0      0      0        0      0      0
  KEYOPT(13-18)=        0      0      0        0      0      0

 CURRENT NODAL DOF SET IS  UX    UY  
  TWO-DIMENSIONAL MODEL

 PREP7:

 ELEMENT TYPE      2 IS TARGE169     2-D TARGET SEGMENT          
  KEYOPT( 1- 6)=        0      0      0        0      0      0
  KEYOPT( 7-12)=        0      0      0        0      0      0
  KEYOPT(13-18)=        0      0      0        0      0      0

 CURRENT NODAL DOF SET IS  UX    UY  
  TWO-DIMENSIONAL MODEL

 PREP7:

 ELEMENT TYPE      3 IS CONTA172     2D 3-NODE SURF-SURF CONTACT 
  KEYOPT( 1- 6)=        0      0      0        0      0      0
  KEYOPT( 7-12)=        0      0      0        0      0      0
  KEYOPT(13-18)=        0      0      0        0      0      0

 CURRENT NODAL DOF SET IS  UX    UY  
  TWO-DIMENSIONAL MODEL

 PREP7:

 PREP7:

 CREATE A CIRCULAR AREA WITH
 INNER RADIUS         =      0.000000000    
 OUTER RADIUS         =     0.1250000000    
 STARTING THETA ANGLE =      0.000000000    
 ENDING   THETA ANGLE =      360.0000000    
      OUTPUT AREA =     1

 PREP7:

 CREATE A PLANAR RECTANGULAR AREA WITH
 X-DISTANCES FROM    -0.1250000000     TO     0.1250000000    
 Y-DISTANCES FROM      0.000000000     TO      1.000000000    

      OUTPUT AREA =     2

 PREP7:

 ADD AREAS
      INPUT AREAS =     1    2
      INPUT AREAS WILL BE DELETED IF POSSIBLE
      OUTPUT AREA(S) =     3

 PREP7:

 ACTIVE COORDINATE SYSTEM SET TO      1  (CYLINDRICAL) Z- CYL. AXIS

 PREP7:

 MOVE ORIGINAL AREAS        
   SET IS ALL SELECTED AREAS        
   DX,DY,DZ=    0.00        30.0        0.00           CSYS=  1

 PREP7:

 ACTIVE COORDINATE SYSTEM SET TO      0  (CARTESIAN)  

 PREP7:

 ROTATE WORKING PLANE 
      0.0000     DEGREES ABOUT WORKING PLANE'S Z AXIS (X TOWARDS Y)
      0.0000     DEGREES ABOUT WORKING PLANE'S X AXIS (Y TOWARDS Z)
      90.000     DEGREES ABOUT WORKING PLANE'S Y AXIS (Z TOWARDS X)

 PREP7:

 ROTATE WORKING PLANE 
      0.0000     DEGREES ABOUT WORKING PLANE'S Z AXIS (X TOWARDS Y)
      60.000     DEGREES ABOUT WORKING PLANE'S X AXIS (Y TOWARDS Z)
      0.0000     DEGREES ABOUT WORKING PLANE'S Y AXIS (Z TOWARDS X)

 PREP7:

 SUBTRACT WORKING PLANES FROM AN AREA
      AREA NUMBERS TO BE OPERATED ON =       3
      AREA OPERATED ON WILL BE DELETED IF POSSIBLE
      OUTPUT AREAS =     1    2

 PREP7:

 ROTATE WORKING PLANE 
      0.0000     DEGREES ABOUT WORKING PLANE'S Z AXIS (X TOWARDS Y)
      90.000     DEGREES ABOUT WORKING PLANE'S X AXIS (Y TOWARDS Z)
      0.0000     DEGREES ABOUT WORKING PLANE'S Y AXIS (Z TOWARDS X)

 PREP7:

 SUBTRACT WORKING PLANES FROM AN AREA
      AREA NUMBERS TO BE OPERATED ON =       1      2
      AREA OPERATED ON WILL BE DELETED IF POSSIBLE
      OUTPUT AREAS =     3    4    5    6

 PREP7:

 PREP7:

 ACTIVE COORDINATE SYSTEM SET TO      0  (CARTESIAN)  

 PREP7:

 CREATE WORKING PLANE AT LOCAL SYSTEM      0

 PREP7:

 CREATE A PLANAR RECTANGULAR AREA WITH
 X-DISTANCES FROM    -0.2500000000     TO      1.000000000    
 Y-DISTANCES FROM    -0.2500000000     TO    -0.1250000000    

      OUTPUT AREA =     1

 PREP7:

 AUTOMATIC SCALING FOR WINDOW 1
    DISTANCE AND FOCUS POINT AUTOMATICALLY CALCULATED

 PREP7:

 PREP7:

 SELECT       FOR ITEM=LINE COMPONENT=    
  IN RANGE         2 TO          6 STEP          1

        5  LINES (OF       14  DEFINED) SELECTED BY LSEL  COMMAND.

 PREP7:

 ALSO SELECT  FOR ITEM=LINE COMPONENT=    
  IN RANGE        11 TO         12 STEP          1

        7  LINES (OF       14  DEFINED) SELECTED BY LSEL COMMAND.

 PREP7:

 SET DIVISIONS ON ALL SELECTED LINES
      TO  NDIV =    6,  SPACING RATIO =   1.000
      (KFORCE = 0      PREVIOUS NONZERO VALUES WILL NOT BE ALTERED)

 PREP7:

 SELECT       FOR ITEM=LINE COMPONENT=    
  IN RANGE         8 TO         10 STEP          1

        3  LINES (OF       14  DEFINED) SELECTED BY LSEL  COMMAND.

 PREP7:

 ALSO SELECT  FOR ITEM=LINE COMPONENT=    
  IN RANGE         1 TO          1 STEP          1

        4  LINES (OF       14  DEFINED) SELECTED BY LSEL COMMAND.

 PREP7:

 ALSO SELECT  FOR ITEM=LINE COMPONENT=    
  IN RANGE        13 TO         13 STEP          1

        5  LINES (OF       14  DEFINED) SELECTED BY LSEL COMMAND.

 PREP7:

 SET DIVISIONS ON ALL SELECTED LINES
      TO  NDIV =   20,  SPACING RATIO =   1.000
      (KFORCE = 0      PREVIOUS NONZERO VALUES WILL NOT BE ALTERED)

 PREP7:

 SELECT       FOR ITEM=LINE COMPONENT=    
  IN RANGE         7 TO          7 STEP          1

        1  LINES (OF       14  DEFINED) SELECTED BY LSEL  COMMAND.

 PREP7:

 ALSO SELECT  FOR ITEM=LINE COMPONENT=    
  IN RANGE        14 TO         14 STEP          1

        2  LINES (OF       14  DEFINED) SELECTED BY LSEL COMMAND.

 PREP7:

 SET DIVISIONS ON ALL SELECTED LINES
      TO  NDIV =    2,  SPACING RATIO =   1.000
      (KFORCE = 0      PREVIOUS NONZERO VALUES WILL NOT BE ALTERED)

 PREP7:

 PREP7:

 SELECT ALL ENTITIES OF TYPE= ALL  AND BELOW

 PREP7:
 USE THE MAPPED MESHER.

 PREP7:

 MATERIAL NUMBER SET TO         2

 PREP7:

 GENERATE NODES AND ELEMENTS
       IN AREAS         1  TO      1  IN STEPS OF      1
                                                                         
 ** Meshing of area 1 in progress **                                     
    ** AREA     1 MESHED WITH      40 QUADRILATERALS,        0 TRIANGLES **
 ** Meshing of area 1 completed ** 40 elements.                          

 NUMBER OF AREAS MESHED     =          1
 MAXIMUM NODE NUMBER        =         63
 MAXIMUM ELEMENT NUMBER     =         40

 PREP7:

 UNSELECT     FOR ITEM=AREA COMPONENT=    
  IN RANGE         1 TO          1 STEP          1

        4  AREAS (OF        5  DEFINED) SELECTED BY ASEL  COMMAND.

 PREP7:

 MATERIAL NUMBER SET TO         1

 PREP7:

 GENERATE NODES AND ELEMENTS   IN  ALL  SELECTED AREAS    
                                                                         
 ** Meshing of area 3 in progress **                                     
    ** AREA     3 MESHED WITH      27 QUADRILATERALS,        0 TRIANGLES **
 ** Meshing of area 3 completed ** 27 elements.                          
                                                                         
 ** Meshing of area 4 in progress **                                     
    ** AREA     4 MESHED WITH      27 QUADRILATERALS,        0 TRIANGLES **
 ** Meshing of area 4 completed ** 27 elements.                          
                                                                         
 ** Meshing of area 5 in progress **                                     
    ** AREA     5 MESHED WITH     120 QUADRILATERALS,        0 TRIANGLES **
 ** Meshing of area 5 completed ** 120 elements.                         
                                                                         
 ** Meshing of area 6 in progress **                                     
    ** AREA     6 MESHED WITH     120 QUADRILATERALS,        0 TRIANGLES **
 ** Meshing of area 6 completed ** 120 elements.                         

 NUMBER OF AREAS MESHED     =          4
 MAXIMUM NODE NUMBER        =        390
 MAXIMUM ELEMENT NUMBER     =        334

 PREP7:

 SELECT ALL ENTITIES OF TYPE= ALL  AND BELOW

 PREP7:

 SELECT       FOR ITEM=LINE COMPONENT=    
  IN RANGE        13 TO         13 STEP          1

        1  LINES (OF       14  DEFINED) SELECTED BY LSEL  COMMAND.

 PREP7:

 SELECT      ALL NODES (INTERIOR TO LINE, AND AT KEYPOINTS)
        RELATED TO SELECTED LINE SET.

       21  NODES (OF      390  DEFINED) SELECTED FROM 
        1 SELECTED LINES BY NSLL COMMAND.

 PREP7:

 ELEMENT TYPE SET TO         2

 PREP7:

 GENERATE ELEMENTS ON SURFACE DEFINED BY SELECTED NODES
  TYPE=   2  REAL=      1  MATERIAL=     1  ESYS=  0

 NUMBER OF ELEMENTS GENERATED=     20                         

 PREP7:

 SELECT       FOR ITEM=LINE COMPONENT=    
  IN RANGE         3 TO          3 STEP          1

        1  LINES (OF       14  DEFINED) SELECTED BY LSEL  COMMAND.

 PREP7:

 SELECT      ALL NODES (INTERIOR TO LINE, AND AT KEYPOINTS)
        RELATED TO SELECTED LINE SET.

        7  NODES (OF      390  DEFINED) SELECTED FROM 
        1 SELECTED LINES BY NSLL COMMAND.

 PREP7:

 ELEMENT TYPE SET TO         3

 PREP7:

 GENERATE ELEMENTS ON SURFACE DEFINED BY SELECTED NODES
  TYPE=   3  REAL=      1  MATERIAL=     1  ESYS=  0

 NUMBER OF ELEMENTS GENERATED=      6                         

 PREP7:

 SELECT ALL ENTITIES OF TYPE= ALL  AND BELOW

 PREP7:

 PREP7:

 SELECT       FOR ITEM=LINE COMPONENT=    
  IN RANGE        11 TO         12 STEP          1

        2  LINES (OF       14  DEFINED) SELECTED BY LSEL  COMMAND.

 PREP7:

 SELECT      ALL NODES (INTERIOR TO LINE, AND AT KEYPOINTS)
        RELATED TO SELECTED LINE SET.

       13  NODES (OF      390  DEFINED) SELECTED FROM 
        2 SELECTED LINES BY NSLL COMMAND.

 PREP7:

 SPECIFIED CONSTRAINT UX   FOR SELECTED NODES         1 TO      390 BY        1
 REAL=  0.00000000       IMAG=  0.00000000    

 PREP7:

 SPECIFIED CONSTRAINT UY   FOR SELECTED NODES         1 TO      390 BY        1
 REAL=-0.500000000       IMAG=  0.00000000    

 PREP7:

 SELECT       FOR ITEM=LINE COMPONENT=    
  IN RANGE         1 TO          1 STEP          1

        1  LINES (OF       14  DEFINED) SELECTED BY LSEL  COMMAND.

 PREP7:

 SELECT      ALL NODES (INTERIOR TO LINE, AND AT KEYPOINTS)
        RELATED TO SELECTED LINE SET.

       21  NODES (OF      390  DEFINED) SELECTED FROM 
        1 SELECTED LINES BY NSLL COMMAND.

 PREP7:

 SPECIFIED CONSTRAINT UX   FOR SELECTED NODES         1 TO      390 BY        1
 REAL=  0.00000000       IMAG=  0.00000000    
 ADDITIONAL DOFS=  UY  

 PREP7:

 SELECT ALL ENTITIES OF TYPE= ALL  AND BELOW

 PREP7:

 PREP7:


 NUMBER OF DISPLAYED ERRORS ALLOWED PER COMMAND=                  0
 NUMBER OF ERRORS ALLOWED PER COMMAND BEFORE ANSYS ABORT=     10000
 ALL ERRORS WRITTEN TO /home/cs1bdh/sharc/bench5.smp.1/output.err                                                                                                                                                                                                                          
 DO NOT TERMINATE /INPUT UPON FIRST ERROR

 PROMPT TO INTERRUPT FILE BASED INPUTS (/INPUT AND MACROS) ON THE FIRST ERROR OR AFTER 5 WARNINGS

 PREP7:

 PREP7:


 ***** ROUTINE COMPLETED *****  CP =         0.534



 *** NOTE ***                            CP =       0.534   TIME= 15:30:21
 A total of 1 warnings and errors written to                             
 /home/cs1bdh/sharc/bench5.smp.1/output.err.                             

 *****  ANSYS SOLUTION ROUTINE  *****

 SOLU_LS1:

 LARGE DEFORMATION ANALYSIS

 SOLU_LS1:

 NEW SOLUTION CONTROL OPTION IS ACTIVATED,
 THE FOLLOWING COMMANDS ARE RESET TO NEW DEFAULTS: 
 AUTOTS, DELTIM, NSUB, CNVTOL, LNSRCH, PRED, NROPT,
 TINTP, CUTCONTROL, OPNCONTROL, MONITOR, NEQIT, SSTIF, KBC.

 NO CONTACT, LOSS OF CONTACT OR STICK/SLIDE TIME PREDICTIONS ARE PERFORMED 

 SOLU_LS1:

 USE    1000 SUBSTEPS INITIALLY THIS LOAD STEP FOR ALL  DEGREES OF FREEDOM
 FOR AUTOMATIC TIME STEPPING:
   USE   1000000 SUBSTEPS AS A MAXIMUM
   USE   1000 SUBSTEPS AS A MINIMUM

 SOLU_LS1:

 SOLU_LS1:

 WRITE ALL  ITEMS TO THE DATABASE WITH A FREQUENCY OF NONE
   FOR ALL APPLICABLE ENTITIES

 SOLU_LS1:

 WRITE ANSYS LOADS DATA AS FILE=output.s01                                                                                                                                                                                                                                                          

 SOLU_LS1:

 SOLU_LS1:

 SELECT       FOR ITEM=LINE COMPONENT=    
  IN RANGE        11 TO         12 STEP          1

        2  LINES (OF       14  DEFINED) SELECTED BY LSEL  COMMAND.

 SOLU_LS1:

 SELECT      ALL NODES (INTERIOR TO LINE, AND AT KEYPOINTS)
        RELATED TO SELECTED LINE SET.

       13  NODES (OF      390  DEFINED) SELECTED FROM 
        2 SELECTED LINES BY NSLL COMMAND.

 SOLU_LS1:

 SPECIFIED CONSTRAINT UX   FOR SELECTED NODES         1 TO      390 BY        1
 REAL= 0.200000000       IMAG=  0.00000000    

 SOLU_LS1:

 SELECT ALL ENTITIES OF TYPE= ALL  AND BELOW

 SOLU_LS1:

 WRITE ANSYS LOADS DATA AS FILE=output.s02                                                                                                                                                                                                                                                          

 SOLU_LS1:

 SOLU_LS1:

 SELECT       FOR ITEM=LINE COMPONENT=    
  IN RANGE        11 TO         12 STEP          1

        2  LINES (OF       14  DEFINED) SELECTED BY LSEL  COMMAND.

 SOLU_LS1:

 SELECT      ALL NODES (INTERIOR TO LINE, AND AT KEYPOINTS)
        RELATED TO SELECTED LINE SET.

       13  NODES (OF      390  DEFINED) SELECTED FROM 
        2 SELECTED LINES BY NSLL COMMAND.

 SOLU_LS1:

 SPECIFIED CONSTRAINT UY   FOR SELECTED NODES         1 TO      390 BY        1
 REAL=-0.260000000       IMAG=  0.00000000    

 SOLU_LS1:

 SELECT ALL ENTITIES OF TYPE= ALL  AND BELOW

 SOLU_LS1:

 WRITE ANSYS LOADS DATA AS FILE=output.s03                                                                                                                                                                                                                                                          

 SOLU_LS1:

 SOLU_LS1:

 *GET  WALL1     FROM  ACTI  ITEM=TIME WALL  VALUE=  15.5061111    

 SOLU_LS1:

 *GET  CPU1      FROM  ACTI  ITEM=TIME CPU   VALUE= 0.542365968    

 SOLU_LS1:
 ANSYS RELEASE Release 16.1      BUILD 16.1      UP20150325       15:30:21

 PRINTOUT RESUMED BY /GOP
                                                                         
 Load step file number 1.  Begin solution ...                            

 *****  ANSYS SOLVE    COMMAND  *****

 *** NOTE ***                            CP =       0.549   TIME= 15:30:23
 There is no title defined for this analysis.                            

                       S O L U T I O N   O P T I O N S

   PROBLEM DIMENSIONALITY. . . . . . . . . . . . .2-D                  
   DEGREES OF FREEDOM. . . . . . UX   UY  
   ANALYSIS TYPE . . . . . . . . . . . . . . . . .STATIC (STEADY-STATE)
   NONLINEAR GEOMETRIC EFFECTS . . . . . . . . . .ON
   PLASTIC MATERIAL PROPERTIES INCLUDED. . . . . .YES
   NEWTON-RAPHSON OPTION . . . . . . . . . . . . .PROGRAM CHOSEN   
   GLOBALLY ASSEMBLED MATRIX . . . . . . . . . . .SYMMETRIC  

 *** NOTE ***                            CP =       0.553   TIME= 15:30:23
 Present time 0 is less than or equal to the previous time.  Time will   
 default to 1.                                                           

 *** NOTE ***                            CP =       0.553   TIME= 15:30:23
 The step data was checked and warning messages were found.              
  Please review output or errors file (                                  
 /home/cs1bdh/sharc/bench5.smp.1/output.err ) for these warning          
 messages.                                                               

 *** NOTE ***                            CP =       0.554   TIME= 15:30:23
 Results printout suppressed for interactive execute.                    

 *** NOTE ***                            CP =       0.554   TIME= 15:30:23
 This nonlinear analysis defaults to using the full Newton-Raphson       
 solution procedure.  This can be modified using the NROPT command.      

 SOLCONTROL,ON uses sparse matrix direct solver

 *** NOTE ***                            CP =       0.554   TIME= 15:30:23
 The conditions for direct assembly have been met.  No .emat or .erot    
 files will be produced.                                                 

                      L O A D   S T E P   O P T I O N S

   LOAD STEP NUMBER. . . . . . . . . . . . . . . .     1
   TIME AT END OF THE LOAD STEP. . . . . . . . . .  1.0000    
   AUTOMATIC TIME STEPPING . . . . . . . . . . . .    ON
      INITIAL NUMBER OF SUBSTEPS . . . . . . . . .  1000
      MAXIMUM NUMBER OF SUBSTEPS . . . . . . . . .  1000000
      MINIMUM NUMBER OF SUBSTEPS . . . . . . . . .  1000
   MAXIMUM NUMBER OF EQUILIBRIUM ITERATIONS. . . .    15
   STEP CHANGE BOUNDARY CONDITIONS . . . . . . . .    NO
   STRESS-STIFFENING . . . . . . . . . . . . . . .    ON
   TERMINATE ANALYSIS IF NOT CONVERGED . . . . . .YES (EXIT)  
   CONVERGENCE CONTROLS. . . . . . . . . . . . . .USE DEFAULTS
   COPY INTEGRATION POINT VALUES TO NODE . . . . .YES, FOR ELEMENTS WITH
                                                  ACTIVE MAT. NONLINEARITIES
   PRINT OUTPUT CONTROLS . . . . . . . . . . . . .NO PRINTOUT
   DATABASE OUTPUT CONTROLS
      ITEM     FREQUENCY   COMPONENT
       ALL       NONE               


 SOLUTION MONITORING INFO IS WRITTEN TO FILE= output.mntr                                                                                                                                                                                                                                                         

 *** NOTE ***                            CP =       0.582   TIME= 15:30:30
 It is highly recommended to use the auto contact setting option by      
 issuing CNCHECK,AUTO command for this problem in order to achieve       
 better convergence.                                                     

 *** NOTE ***                            CP =       0.582   TIME= 15:30:30
 Deformable-deformable contact pair identified by real constant set 1    
 and contact element type 3 has been set up.                             
 Contact algorithm: Augmented Lagrange method
 Contact detection at: Gauss integration point
 Default contact stiffness factor FKN          1.0000    
 The resulting initial contact stiffness      0.47910E+07
 Default penetration tolerance factor FTOLN   0.10000    
 The resulting penetration tolerance          0.20872E-02
 Auto stabilization damping may be applied
 Stabilization damping may be activated in the 1st load step
 Max. initial friction coefficient MU         0.10000    
 Default tangent stiffness factor FKT          1.0000    
 Default Max. friction stress TAUMAX          0.10000E+21
 Average contact surface length               0.32632E-01
 Average contact pair depth                   0.20872E-01
 Default pinball region factor PINB            2.0000    
 The resulting pinball region                 0.41745E-01
 *WARNING*: Initial penetration is included.

 *** NOTE ***                            CP =       0.582   TIME= 15:30:30
 Min.  Initial gap 9.078568613E-04 was detected between contact element  
 360 and target element 338.                                             
 You may move entire target surface by: x= 1.184990989E-04, y=           
 9.0009002E-04, z= 0, to bring it in contact.                            
 ****************************************
  
  
  
 MAXIMUM NUMBER OF EQUILIBRIUM ITERATIONS HAS BEEN MODIFIED              
  TO BE, NEQIT = 26, BY SOLUTION CONTROL LOGIC.                          


 Range of element maximum matrix coefficients in global coordinates
 Maximum = 23104.7761 at element 229.                                    
 Minimum = 1129.11838 at element 356.                                    

   *** ELEMENT MATRIX FORMULATION TIMES
  TYPE    NUMBER   ENAME      TOTAL CP  AVE CP

     1       334  PLANE42       0.019   0.000056
     2        20  TARGE169      0.000   0.000012
     3         6  CONTA172      0.000   0.000059
 Time at end of element matrix formulation CP = 0.686051011.             

 ALL CURRENT ANSYS DATA WRITTEN TO FILE NAME= output.rdb
  FOR POSSIBLE RESUME FROM THIS POINT
     FORCE CONVERGENCE VALUE  =  17.42      CRITERION= 0.8886E-01

 SPARSE MATRIX DIRECT SOLVER.
  Number of equations =         712,    Maximum wavefront =     14
  Memory allocated for solver =          15.259 MB
  Memory required for in-core =           0.416 MB
  Memory required for out-of-core =       0.192 MB


 *** NOTE ***                            CP =       0.718   TIME= 15:30:36
 The Sparse Matrix solver is currently running in the in-core memory     
 mode.  This memory mode uses the most amount of memory in order to      
 avoid using the hard drive as much as possible, which most often        
 results in the fastest solution time.  This mode is recommended if      
 enough physical memory is present to accommodate all of the solver      
 data.                                                                   
 curEqn=    712  totEqn=    712 Job CP sec=      0.530
      Factor Done= 100% Factor Wall sec=      0.002 rate=     309.9 Mflops
 Sparse solver maximum pivot= 76954.3651 at node 223 UX.                 
 Sparse solver minimum pivot= 1511.35254 at node 24 UY.                  
 Sparse solver minimum pivot in absolute value= 1511.35254 at node 24    
 UY.                                                                     
     DISP CONVERGENCE VALUE   = 0.5010E-03  CRITERION= 0.2556E-04
    EQUIL ITER   1 COMPLETED.  NEW TRIANG MATRIX.  MAX DOF INC= -0.5010E-03
     DISP CONVERGENCE VALUE   = 0.5010E-03  CRITERION= 0.2608E-04
     LINE SEARCH PARAMETER =   1.000     SCALED MAX DOF INC = -0.5010E-03
     FORCE CONVERGENCE VALUE  = 0.8054      CRITERION= 0.2797E-02
 curEqn=    712  totEqn=    712 Job CP sec=      0.590
      Factor Done= 100% Factor Wall sec=      0.001 rate=     983.8 Mflops
    EQUIL ITER   2 COMPLETED.  NEW TRIANG MATRIX.  MAX DOF INC= -0.4084E-03
     DISP CONVERGENCE VALUE   = 0.4084E-03  CRITERION= 0.2661E-04
     LINE SEARCH PARAMETER =   1.000     SCALED MAX DOF INC = -0.4084E-03
     FORCE CONVERGENCE VALUE  = 0.3882E-02  CRITERION= 0.5398E-04
 curEqn=    712  totEqn=    712 Job CP sec=      0.620
      Factor Done= 100% Factor Wall sec=      0.001 rate=    1067.8 Mflops
    EQUIL ITER   3 COMPLETED.  NEW TRIANG MATRIX.  MAX DOF INC= -0.2119E-04
     DISP CONVERGENCE VALUE   = 0.2119E-04  CRITERION= 0.2716E-04 <<< CONVERGED
     LINE SEARCH PARAMETER =   1.000     SCALED MAX DOF INC = -0.2119E-04
     FORCE CONVERGENCE VALUE  = 0.6949E-03  CRITERION= 0.5421E-04
 curEqn=    712  totEqn=    712 Job CP sec=      0.660
      Factor Done= 100% Factor Wall sec=      0.001 rate=    1049.8 Mflops
    EQUIL ITER   4 COMPLETED.  NEW TRIANG MATRIX.  MAX DOF INC= -0.5369E-05
     DISP CONVERGENCE VALUE   = 0.5369E-05  CRITERION= 0.2771E-04 <<< CONVERGED
     LINE SEARCH PARAMETER =   1.000     SCALED MAX DOF INC = -0.5369E-05
     FORCE CONVERGENCE VALUE  = 0.1399E-03  CRITERION= 0.5531E-04
 curEqn=    712  totEqn=    712 Job CP sec=      0.680
      Factor Done= 100% Factor Wall sec=      0.001 rate=    1090.8 Mflops
    EQUIL ITER   5 COMPLETED.  NEW TRIANG MATRIX.  MAX DOF INC= -0.1075E-05
     DISP CONVERGENCE VALUE   = 0.1075E-05  CRITERION= 0.2828E-04 <<< CONVERGED
     LINE SEARCH PARAMETER =   1.000     SCALED MAX DOF INC = -0.1075E-05
     FORCE CONVERGENCE VALUE  = 0.2802E-04  CRITERION= 0.5644E-04 <<< CONVERGED
    >>> SOLUTION CONVERGED AFTER EQUILIBRIUM ITERATION   5

   *** ELEMENT RESULT CALCULATION TIMES
  TYPE    NUMBER   ENAME      TOTAL CP  AVE CP

     1       334  PLANE42       0.009   0.000028
     3         6  CONTA172      0.000   0.000029

   *** NODAL LOAD CALCULATION TIMES
  TYPE    NUMBER   ENAME      TOTAL CP  AVE CP

     1       334  PLANE42       0.001   0.000002
     3         6  CONTA172      0.000   0.000004
 *** LOAD STEP     1   SUBSTEP     1  COMPLETED.    CUM ITER =      5
 *** TIME =  0.100000E-02     TIME INC =  0.100000E-02
 *** AUTO STEP TIME:  NEXT TIME INC = 0.10000E-02  UNCHANGED

     FORCE CONVERGENCE VALUE  =  18.79      CRITERION= 0.5102E-04
 curEqn=    712  totEqn=    712 Job CP sec=      0.750
      Factor Done= 100% Factor Wall sec=      0.001 rate=     872.8 Mflops
     DISP CONVERGENCE VALUE   = 0.6136E-04  CRITERION= 0.2556E-04
    EQUIL ITER   1 COMPLETED.  NEW TRIANG MATRIX.  MAX DOF INC=  0.6136E-04
     DISP CONVERGENCE VALUE   = 0.6076E-04  CRITERION= 0.2608E-04
     LINE SEARCH PARAMETER =  0.9902     SCALED MAX DOF INC =  0.6076E-04
     FORCE CONVERGENCE VALUE  = 0.1959      CRITERION= 0.5598E-03
 curEqn=    712  totEqn=    712 Job CP sec=      0.780
      Factor Done= 100% Factor Wall sec=      0.001 rate=    1106.2 Mflops
    EQUIL ITER   2 COMPLETED.  NEW TRIANG MATRIX.  MAX DOF INC=  0.1185E-03
     DISP CONVERGENCE VALUE   = 0.2686E-04  CRITERION= 0.2661E-04
     LINE SEARCH PARAMETER =  0.2267     SCALED MAX DOF INC =  0.2686E-04
     FORCE CONVERGENCE VALUE  = 0.5872      CRITERION= 0.4772E-03
 curEqn=    712  totEqn=    712 Job CP sec=      0.820
      Factor Done= 100% Factor Wall sec=      0.001 rate=    1093.2 Mflops
    EQUIL ITER   3 COMPLETED.  NEW TRIANG MATRIX.  MAX DOF INC=  0.2664E-04
     DISP CONVERGENCE VALUE   = 0.2664E-04  CRITERION= 0.2716E-04 <<< CONVERGED
     LINE SEARCH PARAMETER =   1.000     SCALED MAX DOF INC =  0.2664E-04
     FORCE CONVERGENCE VALUE  = 0.1431      CRITERION= 0.4424E-03
 curEqn=    712  totEqn=    712 Job CP sec=      0.850
      Factor Done= 100% Factor Wall sec=      0.001 rate=    1107.0 Mflops
    EQUIL ITER   4 COMPLETED.  NEW TRIANG MATRIX.  MAX DOF INC=  0.5169E-04
     DISP CONVERGENCE VALUE   = 0.1716E-04  CRITERION= 0.2772E-04 <<< CONVERGED
     LINE SEARCH PARAMETER =  0.3320     SCALED MAX DOF INC =  0.1716E-04
     FORCE CONVERGENCE VALUE  = 0.4828      CRITERION= 0.3992E-03
 curEqn=    712  totEqn=    712 Job CP sec=      0.890
      Factor Done= 100% Factor Wall sec=      0.001 rate=    1103.0 Mflops
    EQUIL ITER   5 COMPLETED.  NEW TRIANG MATRIX.  MAX DOF INC= -0.4890E-05
     DISP CONVERGENCE VALUE   = 0.4497E-05  CRITERION= 0.2829E-04 <<< CONVERGED
     LINE SEARCH PARAMETER =  0.9197     SCALED MAX DOF INC = -0.4497E-05
     FORCE CONVERGENCE VALUE  = 0.5027E-01  CRITERION= 0.4228E-03
 curEqn=    712  totEqn=    712 Job CP sec=      0.930
      Factor Done= 100% Factor Wall sec=      0.001 rate=    1091.6 Mflops
    EQUIL ITER   6 COMPLETED.  NEW TRIANG MATRIX.  MAX DOF INC=  0.1766E-04
     DISP CONVERGENCE VALUE   = 0.1766E-04  CRITERION= 0.2888E-04 <<< CONVERGED
     LINE SEARCH PARAMETER =   1.000     SCALED MAX DOF INC =  0.1766E-04
     FORCE CONVERGENCE VALUE  = 0.1163      CRITERION= 0.4027E-03
 curEqn=    712  totEqn=    712 Job CP sec=      0.950
      Factor Done= 100% Factor Wall sec=      0.001 rate=    1100.9 Mflops
    EQUIL ITER   7 COMPLETED.  NEW TRIANG MATRIX.  MAX DOF INC=  0.3132E-04
     DISP CONVERGENCE VALUE   = 0.1129E-04  CRITERION= 0.2949E-04 <<< CONVERGED
     LINE SEARCH PARAMETER =  0.3606     SCALED MAX DOF INC =  0.1129E-04
     FORCE CONVERGENCE VALUE  = 0.2873      CRITERION= 0.3863E-03
 curEqn=    712  totEqn=    712 Job CP sec=      1.020
      Factor Done= 100% Factor Wall sec=      0.001 rate=    1107.4 Mflops
    EQUIL ITER   8 COMPLETED.  NEW TRIANG MATRIX.  MAX DOF INC=  0.3029E-05
     DISP CONVERGENCE VALUE   = 0.3029E-05  CRITERION= 0.3010E-04 <<< CONVERGED
     LINE SEARCH PARAMETER =   1.000     SCALED MAX DOF INC =  0.3029E-05
     FORCE CONVERGENCE VALUE  = 0.4696E-01  CRITERION= 0.4026E-03
 curEqn=    712  totEqn=    712 Job CP sec=      1.040
      Factor Done= 100% Factor Wall sec=      0.001 rate=    1104.5 Mflops
    EQUIL ITER   9 COMPLETED.  NEW TRIANG MATRIX.  MAX DOF INC=  0.2995E-04
     DISP CONVERGENCE VALUE   = 0.1042E-04  CRITERION= 0.3074E-04 <<< CONVERGED
     LINE SEARCH PARAMETER =  0.3480     SCALED MAX DOF INC =  0.1042E-04
     FORCE CONVERGENCE VALUE  = 0.2255      CRITERION= 0.3930E-03
 curEqn=    712  totEqn=    712 Job CP sec=      1.090
      Factor Done= 100% Factor Wall sec=      0.001 rate=     714.6 Mflops
    EQUIL ITER  10 COMPLETED.  NEW TRIANG MATRIX.  MAX DOF INC=  0.3694E-05
     DISP CONVERGENCE VALUE   = 0.3694E-05  CRITERION= 0.3137E-04 <<< CONVERGED
     LINE SEARCH PARAMETER =   1.000     SCALED MAX DOF INC =  0.3694E-05
     FORCE CONVERGENCE VALUE  = 0.6150E-01  CRITERION= 0.4047E-03
 curEqn=    712  totEqn=    712 Job CP sec=      1.120
      Factor Done= 100% Factor Wall sec=      0.001 rate=    1064.9 Mflops
    EQUIL ITER  11 COMPLETED.  NEW TRIANG MATRIX.  MAX DOF INC=  0.1817E-04
     DISP CONVERGENCE VALUE   = 0.1139E-04  CRITERION= 0.3204E-04 <<< CONVERGED
     LINE SEARCH PARAMETER =  0.6270     SCALED MAX DOF INC =  0.1139E-04
     FORCE CONVERGENCE VALUE  = 0.1952      CRITERION= 0.3993E-03
    >>> PREDICTED NUMBER OF ITERATIONS FOR CONVERGENCE=  52 EXCEEDS MAX OF  26
 *** LOAD STEP     1   SUBSTEP     2  NOT COMPLETED.  CUM ITER =     17
 *** BEGIN BISECTION NUMBER   1    NEW TIME INCREMENT=  0.50000E-03

     FORCE CONVERGENCE VALUE  = 0.2154E-02  CRITERION= 0.5102E-04
 curEqn=    712  totEqn=    712 Job CP sec=      1.170
      Factor Done= 100% Factor Wall sec=      0.001 rate=    1153.3 Mflops
     DISP CONVERGENCE VALUE   = 0.1589E-04  CRITERION= 0.8503E-01 <<< CONVERGED
    EQUIL ITER   1 COMPLETED.  NEW TRIANG MATRIX.  MAX DOF INC=  0.1589E-04
     DISP CONVERGENCE VALUE   = 0.6541E-05  CRITERION= 0.8677E-01 <<< CONVERGED
     LINE SEARCH PARAMETER =  0.4115     SCALED MAX DOF INC =  0.6541E-05
     FORCE CONVERGENCE VALUE  = 0.4741E-03  CRITERION= 0.5206E-04
 curEqn=    712  totEqn=    712 Job CP sec=      1.200
      Factor Done= 100% Factor Wall sec=      0.001 rate=    1343.4 Mflops
    EQUIL ITER   2 COMPLETED.  NEW TRIANG MATRIX.  MAX DOF INC= -0.3563E-05
     DISP CONVERGENCE VALUE   = 0.3563E-05  CRITERION= 0.8854E-01 <<< CONVERGED
     LINE SEARCH PARAMETER =   1.000     SCALED MAX DOF INC = -0.3563E-05
     FORCE CONVERGENCE VALUE  = 0.3508E-03  CRITERION= 0.5312E-04
 curEqn=    712  totEqn=    712 Job CP sec=      1.240
      Factor Done= 100% Factor Wall sec=      0.001 rate=    1251.7 Mflops
    EQUIL ITER   3 COMPLETED.  NEW TRIANG MATRIX.  MAX DOF INC= -0.2702E-05
     DISP CONVERGENCE VALUE   = 0.2702E-05  CRITERION= 0.9035E-01 <<< CONVERGED
     LINE SEARCH PARAMETER =   1.000     SCALED MAX DOF INC = -0.2702E-05
     FORCE CONVERGENCE VALUE  = 0.7056E-04  CRITERION= 0.5421E-04
 curEqn=    712  totEqn=    712 Job CP sec=      1.270
      Factor Done= 100% Factor Wall sec=      0.001 rate=    1251.9 Mflops
    EQUIL ITER   4 COMPLETED.  NEW TRIANG MATRIX.  MAX DOF INC= -0.5436E-06
     DISP CONVERGENCE VALUE   = 0.5436E-06  CRITERION= 0.9219E-01 <<< CONVERGED
     LINE SEARCH PARAMETER =   1.000     SCALED MAX DOF INC = -0.5436E-06
     FORCE CONVERGENCE VALUE  = 0.1413E-04  CRITERION= 0.5531E-04 <<< CONVERGED
    >>> SOLUTION CONVERGED AFTER EQUILIBRIUM ITERATION   4
 *** LOAD STEP     1   SUBSTEP     2  COMPLETED.    CUM ITER =     20
 *** TIME =  0.150000E-02     TIME INC =  0.500000E-03
 *** AUTO STEP TIME:  NEXT TIME INC = 0.50000E-03  UNCHANGED

     FORCE CONVERGENCE VALUE  =  18.81      CRITERION= 0.5102E-04
 curEqn=    712  totEqn=    712 Job CP sec=      1.310
      Factor Done= 100% Factor Wall sec=      0.001 rate=    1362.8 Mflops
     DISP CONVERGENCE VALUE   = 0.6201E-04  CRITERION= 0.8503E-01 <<< CONVERGED
    EQUIL ITER   1 COMPLETED.  NEW TRIANG MATRIX.  MAX DOF INC=  0.6201E-04
     DISP CONVERGENCE VALUE   = 0.6142E-04  CRITERION= 0.8677E-01 <<< CONVERGED
     LINE SEARCH PARAMETER =  0.9905     SCALED MAX DOF INC =  0.6142E-04
     FORCE CONVERGENCE VALUE  = 0.1651      CRITERION= 0.5437E-03
 curEqn=    712  totEqn=    712 Job CP sec=      1.330
      Factor Done= 100% Factor Wall sec=      0.001 rate=    1307.8 Mflops
    EQUIL ITER   2 COMPLETED.  NEW TRIANG MATRIX.  MAX DOF INC=  0.1155E-03
     DISP CONVERGENCE VALUE   = 0.1657E-04  CRITERION= 0.8854E-01 <<< CONVERGED
     LINE SEARCH PARAMETER =  0.1435     SCALED MAX DOF INC =  0.1657E-04
     FORCE CONVERGENCE VALUE  = 0.3142      CRITERION= 0.4986E-03
 curEqn=    712  totEqn=    712 Job CP sec=      1.360
      Factor Done= 100% Factor Wall sec=      0.001 rate=    1390.5 Mflops
    EQUIL ITER   3 COMPLETED.  NEW TRIANG MATRIX.  MAX DOF INC=  0.1259E-04
     DISP CONVERGENCE VALUE   = 0.1259E-04  CRITERION= 0.9035E-01 <<< CONVERGED
     LINE SEARCH PARAMETER =   1.000     SCALED MAX DOF INC =  0.1259E-04
     FORCE CONVERGENCE VALUE  = 0.8467E-01  CRITERION= 0.4864E-03
 curEqn=    712  totEqn=    712 Job CP sec=      1.400
      Factor Done= 100% Factor Wall sec=      0.001 rate=    1323.3 Mflops
    EQUIL ITER   4 COMPLETED.  NEW TRIANG MATRIX.  MAX DOF INC=  0.7921E-04
     DISP CONVERGENCE VALUE   = 0.1112E-04  CRITERION= 0.9219E-01 <<< CONVERGED
     LINE SEARCH PARAMETER =  0.1404     SCALED MAX DOF INC =  0.1112E-04
     FORCE CONVERGENCE VALUE  = 0.3144      CRITERION= 0.4609E-03
 curEqn=    712  totEqn=    712 Job CP sec=      1.430
      Factor Done= 100% Factor Wall sec=      0.001 rate=    1358.2 Mflops
    EQUIL ITER   5 COMPLETED.  NEW TRIANG MATRIX.  MAX DOF INC=  0.8827E-05
     DISP CONVERGENCE VALUE   = 0.8827E-05  CRITERION= 0.9407E-01 <<< CONVERGED
     LINE SEARCH PARAMETER =   1.000     SCALED MAX DOF INC =  0.8827E-05
     FORCE CONVERGENCE VALUE  = 0.6808E-01  CRITERION= 0.4613E-03
 curEqn=    712  totEqn=    712 Job CP sec=      1.450
      Factor Done= 100% Factor Wall sec=      0.001 rate=    1343.0 Mflops
    EQUIL ITER   6 COMPLETED.  NEW TRIANG MATRIX.  MAX DOF INC=  0.6594E-04
     DISP CONVERGENCE VALUE   = 0.1028E-04  CRITERION= 0.9599E-01 <<< CONVERGED
     LINE SEARCH PARAMETER =  0.1559     SCALED MAX DOF INC =  0.1028E-04
     FORCE CONVERGENCE VALUE  = 0.2735      CRITERION= 0.4402E-03
 curEqn=    712  totEqn=    712 Job CP sec=      1.480
      Factor Done= 100% Factor Wall sec=      0.001 rate=    1283.3 Mflops
    EQUIL ITER   7 COMPLETED.  NEW TRIANG MATRIX.  MAX DOF INC=  0.8137E-05
     DISP CONVERGENCE VALUE   = 0.8137E-05  CRITERION= 0.9795E-01 <<< CONVERGED
     LINE SEARCH PARAMETER =   1.000     SCALED MAX DOF INC =  0.8137E-05
     FORCE CONVERGENCE VALUE  = 0.6194E-01  CRITERION= 0.4425E-03
 curEqn=    712  totEqn=    712 Job CP sec=      1.510
      Factor Done= 100% Factor Wall sec=      0.001 rate=    1307.6 Mflops
    EQUIL ITER   8 COMPLETED.  NEW TRIANG MATRIX.  MAX DOF INC=  0.5183E-04
     DISP CONVERGENCE VALUE   = 0.9955E-05  CRITERION= 0.1000     <<< CONVERGED
     LINE SEARCH PARAMETER =  0.1920     SCALED MAX DOF INC =  0.9955E-05
     FORCE CONVERGENCE VALUE  = 0.2563      CRITERION= 0.4248E-03
 curEqn=    712  totEqn=    712 Job CP sec=      1.540
      Factor Done= 100% Factor Wall sec=      0.001 rate=    1388.7 Mflops
    EQUIL ITER   9 COMPLETED.  NEW TRIANG MATRIX.  MAX DOF INC=  0.6501E-05
     DISP CONVERGENCE VALUE   = 0.6501E-05  CRITERION= 0.1020     <<< CONVERGED
     LINE SEARCH PARAMETER =   1.000     SCALED MAX DOF INC =  0.6501E-05
     FORCE CONVERGENCE VALUE  = 0.5768E-01  CRITERION= 0.4313E-03
    >>> PREDICTED NUMBER OF ITERATIONS FOR CONVERGENCE=  52 EXCEEDS MAX OF  26
 *** LOAD STEP     1   SUBSTEP     3  NOT COMPLETED.  CUM ITER =     30
 *** BEGIN BISECTION NUMBER   1    NEW TIME INCREMENT=  0.25000E-03

     FORCE CONVERGENCE VALUE  = 0.2127E-03  CRITERION= 0.5102E-04
 curEqn=    712  totEqn=    712 Job CP sec=      1.590
      Factor Done= 100% Factor Wall sec=      0.001 rate=    1276.8 Mflops
     DISP CONVERGENCE VALUE   = 0.1624E-05  CRITERION= 0.8503E-01 <<< CONVERGED
    EQUIL ITER   1 COMPLETED.  NEW TRIANG MATRIX.  MAX DOF INC=  0.1624E-05
     DISP CONVERGENCE VALUE   = 0.6453E-06  CRITERION= 0.8677E-01 <<< CONVERGED
     LINE SEARCH PARAMETER =  0.3974     SCALED MAX DOF INC =  0.6453E-06
     FORCE CONVERGENCE VALUE  = 0.4869E-04  CRITERION= 0.5206E-04 <<< CONVERGED
 curEqn=    712  totEqn=    712 Job CP sec=      1.620
      Factor Done= 100% Factor Wall sec=      0.001 rate=    1335.1 Mflops
    EQUIL ITER   2 COMPLETED.  NEW TRIANG MATRIX.  MAX DOF INC= -0.3735E-06
     DISP CONVERGENCE VALUE   = 0.3735E-06  CRITERION= 0.8854E-01 <<< CONVERGED
     LINE SEARCH PARAMETER =   1.000     SCALED MAX DOF INC = -0.3735E-06
    >>> SOLUTION CONVERGED AFTER EQUILIBRIUM ITERATION   2
 *** LOAD STEP     1   SUBSTEP     3  COMPLETED.    CUM ITER =     31
 *** TIME =  0.175000E-02     TIME INC =  0.250000E-03
 *** AUTO STEP TIME:  NEXT TIME INC = 0.25000E-03  UNCHANGED

     FORCE CONVERGENCE VALUE  =  18.74      CRITERION= 0.5102E-04
 curEqn=    712  totEqn=    712 Job CP sec=      1.660
      Factor Done= 100% Factor Wall sec=      0.001 rate=    1231.4 Mflops
     DISP CONVERGENCE VALUE   = 0.6203E-04  CRITERION= 0.8503E-01 <<< CONVERGED
    EQUIL ITER   1 COMPLETED.  NEW TRIANG MATRIX.  MAX DOF INC=  0.6203E-04
     DISP CONVERGENCE VALUE   = 0.6144E-04  CRITERION= 0.8677E-01 <<< CONVERGED
     LINE SEARCH PARAMETER =  0.9905     SCALED MAX DOF INC =  0.6144E-04
     FORCE CONVERGENCE VALUE  = 0.1530      CRITERION= 0.5354E-03
 curEqn=    712  totEqn=    712 Job CP sec=      1.690
      Factor Done= 100% Factor Wall sec=      0.001 rate=    1256.2 Mflops
    EQUIL ITER   2 COMPLETED.  NEW TRIANG MATRIX.  MAX DOF INC=  0.1139E-03
     DISP CONVERGENCE VALUE   = 0.1557E-04  CRITERION= 0.8854E-01 <<< CONVERGED
     LINE SEARCH PARAMETER =  0.1367     SCALED MAX DOF INC =  0.1557E-04
     FORCE CONVERGENCE VALUE  = 0.3079      CRITERION= 0.4947E-03
 curEqn=    712  totEqn=    712 Job CP sec=      1.730
      Factor Done= 100% Factor Wall sec=      0.001 rate=     995.4 Mflops
    EQUIL ITER   3 COMPLETED.  NEW TRIANG MATRIX.  MAX DOF INC=  0.1252E-04
     DISP CONVERGENCE VALUE   = 0.1252E-04  CRITERION= 0.9035E-01 <<< CONVERGED
     LINE SEARCH PARAMETER =   1.000     SCALED MAX DOF INC =  0.1252E-04
     FORCE CONVERGENCE VALUE  = 0.8494E-01  CRITERION= 0.4879E-03
 curEqn=    712  totEqn=    712 Job CP sec=      1.750
      Factor Done= 100% Factor Wall sec=      0.001 rate=    1144.7 Mflops
    EQUIL ITER   4 COMPLETED.  NEW TRIANG MATRIX.  MAX DOF INC=  0.7987E-04
     DISP CONVERGENCE VALUE   = 0.1145E-04  CRITERION= 0.9219E-01 <<< CONVERGED
     LINE SEARCH PARAMETER =  0.1433     SCALED MAX DOF INC =  0.1145E-04
     FORCE CONVERGENCE VALUE  = 0.3165      CRITERION= 0.4612E-03
 curEqn=    712  totEqn=    712 Job CP sec=      1.800
      Factor Done= 100% Factor Wall sec=      0.001 rate=    1187.8 Mflops
    EQUIL ITER   5 COMPLETED.  NEW TRIANG MATRIX.  MAX DOF INC=  0.8749E-05
     DISP CONVERGENCE VALUE   = 0.8749E-05  CRITERION= 0.9407E-01 <<< CONVERGED
     LINE SEARCH PARAMETER =   1.000     SCALED MAX DOF INC =  0.8749E-05
     FORCE CONVERGENCE VALUE  = 0.6802E-01  CRITERION= 0.4618E-03
 curEqn=    712  totEqn=    712 Job CP sec=      1.820
      Factor Done= 100% Factor Wall sec=      0.001 rate=    1232.4 Mflops
    EQUIL ITER   6 COMPLETED.  NEW TRIANG MATRIX.  MAX DOF INC=  0.6617E-04
     DISP CONVERGENCE VALUE   = 0.1028E-04  CRITERION= 0.9599E-01 <<< CONVERGED
     LINE SEARCH PARAMETER =  0.1553     SCALED MAX DOF INC =  0.1028E-04
     FORCE CONVERGENCE VALUE  = 0.2733      CRITERION= 0.4407E-03
 curEqn=    712  totEqn=    712 Job CP sec=      1.860
      Factor Done= 100% Factor Wall sec=      0.001 rate=    1169.5 Mflops
    EQUIL ITER   7 COMPLETED.  NEW TRIANG MATRIX.  MAX DOF INC=  0.8179E-05
     DISP CONVERGENCE VALUE   = 0.8179E-05  CRITERION= 0.9795E-01 <<< CONVERGED
     LINE SEARCH PARAMETER =   1.000     SCALED MAX DOF INC =  0.8179E-05
     FORCE CONVERGENCE VALUE  = 0.6209E-01  CRITERION= 0.4428E-03
 curEqn=    712  totEqn=    712 Job CP sec=      1.890
      Factor Done= 100% Factor Wall sec=      0.001 rate=    1139.7 Mflops
    EQUIL ITER   8 COMPLETED.  NEW TRIANG MATRIX.  MAX DOF INC=  0.5196E-04
     DISP CONVERGENCE VALUE   = 0.9962E-05  CRITERION= 0.1000     <<< CONVERGED
     LINE SEARCH PARAMETER =  0.1917     SCALED MAX DOF INC =  0.9962E-05
     FORCE CONVERGENCE VALUE  = 0.2567      CRITERION= 0.4251E-03
 curEqn=    712  totEqn=    712 Job CP sec=      1.930
      Factor Done= 100% Factor Wall sec=      0.001 rate=    1323.5 Mflops
    EQUIL ITER   9 COMPLETED.  NEW TRIANG MATRIX.  MAX DOF INC=  0.6508E-05
     DISP CONVERGENCE VALUE   = 0.6508E-05  CRITERION= 0.1020     <<< CONVERGED
     LINE SEARCH PARAMETER =   1.000     SCALED MAX DOF INC =  0.6508E-05
     FORCE CONVERGENCE VALUE  = 0.5766E-01  CRITERION= 0.4316E-03
    >>> PREDICTED NUMBER OF ITERATIONS FOR CONVERGENCE=  52 EXCEEDS MAX OF  26
 *** LOAD STEP     1   SUBSTEP     4  NOT COMPLETED.  CUM ITER =     41
 *** BEGIN BISECTION NUMBER   1    NEW TIME INCREMENT=  0.12500E-03

     FORCE CONVERGENCE VALUE  =  6.993      CRITERION= 0.5102E-04
 curEqn=    712  totEqn=    712 Job CP sec=      1.960
      Factor Done= 100% Factor Wall sec=      0.001 rate=    1269.9 Mflops
     DISP CONVERGENCE VALUE   = 0.2311E-04  CRITERION= 0.8503E-01 <<< CONVERGED
    EQUIL ITER   1 COMPLETED.  NEW TRIANG MATRIX.  MAX DOF INC=  0.2311E-04
     DISP CONVERGENCE VALUE   = 0.2289E-04  CRITERION= 0.8677E-01 <<< CONVERGED
     LINE SEARCH PARAMETER =  0.9905     SCALED MAX DOF INC =  0.2289E-04
     FORCE CONVERGENCE VALUE  = 0.5856E-01  CRITERION= 0.2010E-03
 curEqn=    712  totEqn=    712 Job CP sec=      1.990
      Factor Done= 100% Factor Wall sec=      0.001 rate=    1319.2 Mflops
    EQUIL ITER   2 COMPLETED.  NEW TRIANG MATRIX.  MAX DOF INC=  0.4271E-04
     DISP CONVERGENCE VALUE   = 0.5936E-05  CRITERION= 0.8854E-01 <<< CONVERGED
     LINE SEARCH PARAMETER =  0.1390     SCALED MAX DOF INC =  0.5936E-05
     FORCE CONVERGENCE VALUE  = 0.1156      CRITERION= 0.1853E-03
 curEqn=    712  totEqn=    712 Job CP sec=      2.030
      Factor Done= 100% Factor Wall sec=      0.001 rate=    1339.9 Mflops
    EQUIL ITER   3 COMPLETED.  NEW TRIANG MATRIX.  MAX DOF INC=  0.4647E-05
     DISP CONVERGENCE VALUE   = 0.4647E-05  CRITERION= 0.9035E-01 <<< CONVERGED
     LINE SEARCH PARAMETER =   1.000     SCALED MAX DOF INC =  0.4647E-05
     FORCE CONVERGENCE VALUE  = 0.3173E-01  CRITERION= 0.1820E-03
 curEqn=    712  totEqn=    712 Job CP sec=      2.050
      Factor Done= 100% Factor Wall sec=      0.001 rate=    1301.9 Mflops
    EQUIL ITER   4 COMPLETED.  NEW TRIANG MATRIX.  MAX DOF INC=  0.2962E-04
     DISP CONVERGENCE VALUE   = 0.4252E-05  CRITERION= 0.9219E-01 <<< CONVERGED
     LINE SEARCH PARAMETER =  0.1435     SCALED MAX DOF INC =  0.4252E-05
     FORCE CONVERGENCE VALUE  = 0.1186      CRITERION= 0.1722E-03
 curEqn=    712  totEqn=    712 Job CP sec=      2.090
      Factor Done= 100% Factor Wall sec=      0.001 rate=    1206.9 Mflops
    EQUIL ITER   5 COMPLETED.  NEW TRIANG MATRIX.  MAX DOF INC=  0.3270E-05
     DISP CONVERGENCE VALUE   = 0.3270E-05  CRITERION= 0.9407E-01 <<< CONVERGED
     LINE SEARCH PARAMETER =   1.000     SCALED MAX DOF INC =  0.3270E-05
     FORCE CONVERGENCE VALUE  = 0.2543E-01  CRITERION= 0.1725E-03
 curEqn=    712  totEqn=    712 Job CP sec=      2.110
      Factor Done= 100% Factor Wall sec=      0.001 rate=    1305.6 Mflops
    EQUIL ITER   6 COMPLETED.  NEW TRIANG MATRIX.  MAX DOF INC=  0.2457E-04
     DISP CONVERGENCE VALUE   = 0.3864E-05  CRITERION= 0.9599E-01 <<< CONVERGED
     LINE SEARCH PARAMETER =  0.1573     SCALED MAX DOF INC =  0.3864E-05
     FORCE CONVERGENCE VALUE  = 0.1028      CRITERION= 0.1645E-03
 curEqn=    712  totEqn=    712 Job CP sec=      2.150
      Factor Done= 100% Factor Wall sec=      0.001 rate=    1353.5 Mflops
    EQUIL ITER   7 COMPLETED.  NEW TRIANG MATRIX.  MAX DOF INC=  0.3049E-05
     DISP CONVERGENCE VALUE   = 0.3049E-05  CRITERION= 0.9795E-01 <<< CONVERGED
     LINE SEARCH PARAMETER =   1.000     SCALED MAX DOF INC =  0.3049E-05
     FORCE CONVERGENCE VALUE  = 0.2339E-01  CRITERION= 0.1654E-03
 curEqn=    712  totEqn=    712 Job CP sec=      2.170
      Factor Done= 100% Factor Wall sec=      0.001 rate=    1334.3 Mflops
    EQUIL ITER   8 COMPLETED.  NEW TRIANG MATRIX.  MAX DOF INC=  0.1925E-04
     DISP CONVERGENCE VALUE   = 0.3767E-05  CRITERION= 0.1000     <<< CONVERGED
     LINE SEARCH PARAMETER =  0.1957     SCALED MAX DOF INC =  0.3767E-05
     FORCE CONVERGENCE VALUE  = 0.9692E-01  CRITERION= 0.1587E-03
 curEqn=    712  totEqn=    712 Job CP sec=      2.210
      Factor Done= 100% Factor Wall sec=      0.001 rate=    1298.1 Mflops
    EQUIL ITER   9 COMPLETED.  NEW TRIANG MATRIX.  MAX DOF INC=  0.2410E-05
     DISP CONVERGENCE VALUE   = 0.2410E-05  CRITERION= 0.1020     <<< CONVERGED
     LINE SEARCH PARAMETER =   1.000     SCALED MAX DOF INC =  0.2410E-05
     FORCE CONVERGENCE VALUE  = 0.2183E-01  CRITERION= 0.1613E-03
    >>> PREDICTED NUMBER OF ITERATIONS FOR CONVERGENCE=  52 EXCEEDS MAX OF  26
 *** LOAD STEP     1   SUBSTEP     4  NOT COMPLETED.  CUM ITER =     50
 *** BEGIN BISECTION NUMBER   2    NEW TIME INCREMENT=  0.62500E-04

     FORCE CONVERGENCE VALUE  =  1.123      CRITERION= 0.5102E-04
 curEqn=    712  totEqn=    712 Job CP sec=      2.250
      Factor Done= 100% Factor Wall sec=      0.001 rate=    1327.5 Mflops
     DISP CONVERGENCE VALUE   = 0.3649E-05  CRITERION= 0.8503E-01 <<< CONVERGED
    EQUIL ITER   1 COMPLETED.  NEW TRIANG MATRIX.  MAX DOF INC=  0.3649E-05
     DISP CONVERGENCE VALUE   = 0.3612E-05  CRITERION= 0.8677E-01 <<< CONVERGED
     LINE SEARCH PARAMETER =  0.9900     SCALED MAX DOF INC =  0.3612E-05
     FORCE CONVERGENCE VALUE  = 0.1183E-01  CRITERION= 0.5206E-04
 curEqn=    712  totEqn=    712 Job CP sec=      2.270
      Factor Done= 100% Factor Wall sec=      0.001 rate=    1350.4 Mflops
    EQUIL ITER   2 COMPLETED.  NEW TRIANG MATRIX.  MAX DOF INC=  0.7095E-05
     DISP CONVERGENCE VALUE   = 0.1622E-05  CRITERION= 0.8854E-01 <<< CONVERGED
     LINE SEARCH PARAMETER =  0.2286     SCALED MAX DOF INC =  0.1622E-05
     FORCE CONVERGENCE VALUE  = 0.3537E-01  CRITERION= 0.5312E-04
 curEqn=    712  totEqn=    712 Job CP sec=      2.300
      Factor Done= 100% Factor Wall sec=      0.001 rate=    1257.4 Mflops
    EQUIL ITER   3 COMPLETED.  NEW TRIANG MATRIX.  MAX DOF INC=  0.1602E-05
     DISP CONVERGENCE VALUE   = 0.1602E-05  CRITERION= 0.9035E-01 <<< CONVERGED
     LINE SEARCH PARAMETER =   1.000     SCALED MAX DOF INC =  0.1602E-05
     FORCE CONVERGENCE VALUE  = 0.8781E-02  CRITERION= 0.5421E-04
 curEqn=    712  totEqn=    712 Job CP sec=      2.330
      Factor Done= 100% Factor Wall sec=      0.001 rate=    1177.4 Mflops
    EQUIL ITER   4 COMPLETED.  NEW TRIANG MATRIX.  MAX DOF INC=  0.3050E-05
     DISP CONVERGENCE VALUE   = 0.8059E-06  CRITERION= 0.9219E-01 <<< CONVERGED
     LINE SEARCH PARAMETER =  0.2642     SCALED MAX DOF INC =  0.8059E-06
     FORCE CONVERGENCE VALUE  = 0.2298E-01  CRITERION= 0.5531E-04
 curEqn=    712  totEqn=    712 Job CP sec=      2.370
      Factor Done= 100% Factor Wall sec=      0.001 rate=    1346.0 Mflops
    EQUIL ITER   5 COMPLETED.  NEW TRIANG MATRIX.  MAX DOF INC= -0.2406E-06
     DISP CONVERGENCE VALUE   = 0.2406E-06  CRITERION= 0.9407E-01 <<< CONVERGED
     LINE SEARCH PARAMETER =   1.000     SCALED MAX DOF INC = -0.2406E-06
     FORCE CONVERGENCE VALUE  = 0.2886E-02  CRITERION= 0.5644E-04
 curEqn=    712  totEqn=    712 Job CP sec=      2.400
      Factor Done= 100% Factor Wall sec=      0.001 rate=    1410.5 Mflops
    EQUIL ITER   6 COMPLETED.  NEW TRIANG MATRIX.  MAX DOF INC=  0.3165E-05
     DISP CONVERGENCE VALUE   = 0.5373E-06  CRITERION= 0.9599E-01 <<< CONVERGED
     LINE SEARCH PARAMETER =  0.1698     SCALED MAX DOF INC =  0.5373E-06
     FORCE CONVERGENCE VALUE  = 0.1338E-01  CRITERION= 0.5760E-04
 curEqn=    712  totEqn=    712 Job CP sec=      2.440
      Factor Done= 100% Factor Wall sec=      0.001 rate=    1193.0 Mflops
    EQUIL ITER   7 COMPLETED.  NEW TRIANG MATRIX.  MAX DOF INC=  0.4999E-06
     DISP CONVERGENCE VALUE   = 0.4999E-06  CRITERION= 0.9795E-01 <<< CONVERGED
     LINE SEARCH PARAMETER =   1.000     SCALED MAX DOF INC =  0.4999E-06
     FORCE CONVERGENCE VALUE  = 0.4196E-02  CRITERION= 0.5877E-04
 curEqn=    712  totEqn=    712 Job CP sec=      2.460
      Factor Done= 100% Factor Wall sec=      0.001 rate=    1347.6 Mflops
    EQUIL ITER   8 COMPLETED.  NEW TRIANG MATRIX.  MAX DOF INC=  0.2153E-05
     DISP CONVERGENCE VALUE   = 0.7413E-06  CRITERION= 0.1000     <<< CONVERGED
     LINE SEARCH PARAMETER =  0.3443     SCALED MAX DOF INC =  0.7413E-06
     FORCE CONVERGENCE VALUE  = 0.1768E-01  CRITERION= 0.5997E-04
 curEqn=    712  totEqn=    712 Job CP sec=      2.500
      Factor Done= 100% Factor Wall sec=      0.001 rate=    1337.7 Mflops
    EQUIL ITER   9 COMPLETED.  NEW TRIANG MATRIX.  MAX DOF INC=  0.1603E-06
     DISP CONVERGENCE VALUE   = 0.1603E-06  CRITERION= 0.1020     <<< CONVERGED
     LINE SEARCH PARAMETER =   1.000     SCALED MAX DOF INC =  0.1603E-06
     FORCE CONVERGENCE VALUE  = 0.2997E-02  CRITERION= 0.6119E-04
 curEqn=    712  totEqn=    712 Job CP sec=      2.520
      Factor Done= 100% Factor Wall sec=      0.001 rate=    1375.9 Mflops
    EQUIL ITER  10 COMPLETED.  NEW TRIANG MATRIX.  MAX DOF INC=  0.1677E-05
     DISP CONVERGENCE VALUE   = 0.6970E-06  CRITERION= 0.1041     <<< CONVERGED
     LINE SEARCH PARAMETER =  0.4155     SCALED MAX DOF INC =  0.6970E-06
     FORCE CONVERGENCE VALUE  = 0.1448E-01  CRITERION= 0.6244E-04
    >>> PREDICTED NUMBER OF ITERATIONS FOR CONVERGENCE=  52 EXCEEDS MAX OF  26
 *** LOAD STEP     1   SUBSTEP     4  NOT COMPLETED.  CUM ITER =     60
 *** BEGIN BISECTION NUMBER   3    NEW TIME INCREMENT=  0.31250E-04

     FORCE CONVERGENCE VALUE  = 0.2545E-04  CRITERION= 0.5102E-04
 curEqn=    712  totEqn=    712 Job CP sec=      2.580
      Factor Done= 100% Factor Wall sec=      0.001 rate=     798.4 Mflops
     DISP CONVERGENCE VALUE   = 0.1949E-06  CRITERION= 0.8503E-01 <<< CONVERGED
    EQUIL ITER   1 COMPLETED.  NEW TRIANG MATRIX.  MAX DOF INC= -0.1949E-06
     DISP CONVERGENCE VALUE   = 0.1949E-06  CRITERION= 0.8677E-01 <<< CONVERGED
     LINE SEARCH PARAMETER =   1.000     SCALED MAX DOF INC = -0.1949E-06
     FORCE CONVERGENCE VALUE  = 0.1784E-04  CRITERION= 0.5206E-04 <<< CONVERGED
    >>> SOLUTION CONVERGED AFTER EQUILIBRIUM ITERATION   1
 *** LOAD STEP     1   SUBSTEP     4  COMPLETED.    CUM ITER =     60
 *** TIME =  0.178125E-02     TIME INC =  0.312500E-04
 *** AUTO STEP TIME:  NEXT TIME INC = 0.31250E-04  UNCHANGED

     FORCE CONVERGENCE VALUE  =  1.159      CRITERION= 0.5102E-04
 curEqn=    712  totEqn=    712 Job CP sec=      2.640
      Factor Done= 100% Factor Wall sec=      0.001 rate=    1182.7 Mflops
     DISP CONVERGENCE VALUE   = 0.3845E-05  CRITERION= 0.8503E-01 <<< CONVERGED
    EQUIL ITER   1 COMPLETED.  NEW TRIANG MATRIX.  MAX DOF INC=  0.3845E-05
     DISP CONVERGENCE VALUE   = 0.3809E-05  CRITERION= 0.8677E-01 <<< CONVERGED
     LINE SEARCH PARAMETER =  0.9906     SCALED MAX DOF INC =  0.3809E-05
     FORCE CONVERGENCE VALUE  = 0.9732E-02  CRITERION= 0.5206E-04
 curEqn=    712  totEqn=    712 Job CP sec=      2.670
      Factor Done= 100% Factor Wall sec=      0.001 rate=    1303.0 Mflops
    EQUIL ITER   2 COMPLETED.  NEW TRIANG MATRIX.  MAX DOF INC=  0.6965E-05
     DISP CONVERGENCE VALUE   = 0.1058E-05  CRITERION= 0.8854E-01 <<< CONVERGED
     LINE SEARCH PARAMETER =  0.1519     SCALED MAX DOF INC =  0.1058E-05
     FORCE CONVERGENCE VALUE  = 0.2031E-01  CRITERION= 0.5312E-04
 curEqn=    712  totEqn=    712 Job CP sec=      2.700
      Factor Done= 100% Factor Wall sec=      0.001 rate=    1319.6 Mflops
    EQUIL ITER   3 COMPLETED.  NEW TRIANG MATRIX.  MAX DOF INC=  0.7199E-06
     DISP CONVERGENCE VALUE   = 0.7199E-06  CRITERION= 0.9035E-01 <<< CONVERGED
     LINE SEARCH PARAMETER =   1.000     SCALED MAX DOF INC =  0.7199E-06
     FORCE CONVERGENCE VALUE  = 0.5060E-02  CRITERION= 0.5421E-04
 curEqn=    712  totEqn=    712 Job CP sec=      2.720
      Factor Done= 100% Factor Wall sec=      0.001 rate=    1203.7 Mflops
    EQUIL ITER   4 COMPLETED.  NEW TRIANG MATRIX.  MAX DOF INC=  0.4833E-05
     DISP CONVERGENCE VALUE   = 0.6757E-06  CRITERION= 0.9219E-01 <<< CONVERGED
     LINE SEARCH PARAMETER =  0.1398     SCALED MAX DOF INC =  0.6757E-06
     FORCE CONVERGENCE VALUE  = 0.1905E-01  CRITERION= 0.5531E-04
 curEqn=    712  totEqn=    712 Job CP sec=      2.760
      Factor Done= 100% Factor Wall sec=      0.001 rate=    1307.9 Mflops
    EQUIL ITER   5 COMPLETED.  NEW TRIANG MATRIX.  MAX DOF INC=  0.5555E-06
     DISP CONVERGENCE VALUE   = 0.5555E-06  CRITERION= 0.9407E-01 <<< CONVERGED
     LINE SEARCH PARAMETER =   1.000     SCALED MAX DOF INC =  0.5555E-06
     FORCE CONVERGENCE VALUE  = 0.4206E-02  CRITERION= 0.5644E-04
 curEqn=    712  totEqn=    712 Job CP sec=      2.790
      Factor Done= 100% Factor Wall sec=      0.001 rate=    1276.0 Mflops
    EQUIL ITER   6 COMPLETED.  NEW TRIANG MATRIX.  MAX DOF INC=  0.3972E-05
     DISP CONVERGENCE VALUE   = 0.6392E-06  CRITERION= 0.9599E-01 <<< CONVERGED
     LINE SEARCH PARAMETER =  0.1609     SCALED MAX DOF INC =  0.6392E-06
     FORCE CONVERGENCE VALUE  = 0.1701E-01  CRITERION= 0.5760E-04
 curEqn=    712  totEqn=    712 Job CP sec=      2.820
      Factor Done= 100% Factor Wall sec=      0.001 rate=    1400.6 Mflops
    EQUIL ITER   7 COMPLETED.  NEW TRIANG MATRIX.  MAX DOF INC=  0.4902E-06
     DISP CONVERGENCE VALUE   = 0.4902E-06  CRITERION= 0.9795E-01 <<< CONVERGED
     LINE SEARCH PARAMETER =   1.000     SCALED MAX DOF INC =  0.4902E-06
     FORCE CONVERGENCE VALUE  = 0.3827E-02  CRITERION= 0.5877E-04
 curEqn=    712  totEqn=    712 Job CP sec=      2.860
      Factor Done= 100% Factor Wall sec=      0.001 rate=     897.4 Mflops
    EQUIL ITER   8 COMPLETED.  NEW TRIANG MATRIX.  MAX DOF INC=  0.3120E-05
     DISP CONVERGENCE VALUE   = 0.6217E-06  CRITERION= 0.1000     <<< CONVERGED
     LINE SEARCH PARAMETER =  0.1993     SCALED MAX DOF INC =  0.6217E-06
     FORCE CONVERGENCE VALUE  = 0.1594E-01  CRITERION= 0.5997E-04
 curEqn=    712  totEqn=    712 Job CP sec=      2.900
      Factor Done= 100% Factor Wall sec=      0.001 rate=    1182.6 Mflops
    EQUIL ITER   9 COMPLETED.  NEW TRIANG MATRIX.  MAX DOF INC=  0.3926E-06
     DISP CONVERGENCE VALUE   = 0.3926E-06  CRITERION= 0.1020     <<< CONVERGED
     LINE SEARCH PARAMETER =   1.000     SCALED MAX DOF INC =  0.3926E-06
     FORCE CONVERGENCE VALUE  = 0.3620E-02  CRITERION= 0.6119E-04
    >>> PREDICTED NUMBER OF ITERATIONS FOR CONVERGENCE=  52 EXCEEDS MAX OF  26
 *** LOAD STEP     1   SUBSTEP     5  NOT COMPLETED.  CUM ITER =     70
 *** BEGIN BISECTION NUMBER   1    NEW TIME INCREMENT=  0.15625E-04

     FORCE CONVERGENCE VALUE  = 0.9074E-05  CRITERION= 0.5102E-04
 curEqn=    712  totEqn=    712 Job CP sec=      2.950
      Factor Done= 100% Factor Wall sec=      0.001 rate=    1249.4 Mflops
     DISP CONVERGENCE VALUE   = 0.7010E-07  CRITERION= 0.8503E-01 <<< CONVERGED
    EQUIL ITER   1 COMPLETED.  NEW TRIANG MATRIX.  MAX DOF INC= -0.7010E-07
     DISP CONVERGENCE VALUE   = 0.7010E-07  CRITERION= 0.8677E-01 <<< CONVERGED
     LINE SEARCH PARAMETER =   1.000     SCALED MAX DOF INC = -0.7010E-07
     FORCE CONVERGENCE VALUE  = 0.1792E-05  CRITERION= 0.5206E-04 <<< CONVERGED
    >>> SOLUTION CONVERGED AFTER EQUILIBRIUM ITERATION   1
 *** LOAD STEP     1   SUBSTEP     5  COMPLETED.    CUM ITER =     70
 *** TIME =  0.179687E-02     TIME INC =  0.156250E-04
 *** AUTO STEP TIME:  NEXT TIME INC = 0.15625E-04  UNCHANGED

     FORCE CONVERGENCE VALUE  =  1.172      CRITERION= 0.5102E-04
 curEqn=    712  totEqn=    712 Job CP sec=      3.000
      Factor Done= 100% Factor Wall sec=      0.001 rate=    1305.3 Mflops
     DISP CONVERGENCE VALUE   = 0.3907E-05  CRITERION= 0.8503E-01 <<< CONVERGED
    EQUIL ITER   1 COMPLETED.  NEW TRIANG MATRIX.  MAX DOF INC=  0.3907E-05
     DISP CONVERGENCE VALUE   = 0.3871E-05  CRITERION= 0.8677E-01 <<< CONVERGED
     LINE SEARCH PARAMETER =  0.9907     SCALED MAX DOF INC =  0.3871E-05
     FORCE CONVERGENCE VALUE  = 0.9184E-02  CRITERION= 0.5206E-04
 curEqn=    712  totEqn=    712 Job CP sec=      3.020
      Factor Done= 100% Factor Wall sec=      0.001 rate=    1256.5 Mflops
    EQUIL ITER   2 COMPLETED.  NEW TRIANG MATRIX.  MAX DOF INC=  0.6978E-05
     DISP CONVERGENCE VALUE   = 0.1001E-05  CRITERION= 0.8854E-01 <<< CONVERGED
     LINE SEARCH PARAMETER =  0.1434     SCALED MAX DOF INC =  0.1001E-05
     FORCE CONVERGENCE VALUE  = 0.1997E-01  CRITERION= 0.5312E-04
 curEqn=    712  totEqn=    712 Job CP sec=      3.060
      Factor Done= 100% Factor Wall sec=      0.001 rate=    1353.9 Mflops
    EQUIL ITER   3 COMPLETED.  NEW TRIANG MATRIX.  MAX DOF INC=  0.7242E-06
     DISP CONVERGENCE VALUE   = 0.7242E-06  CRITERION= 0.9035E-01 <<< CONVERGED
     LINE SEARCH PARAMETER =   1.000     SCALED MAX DOF INC =  0.7242E-06
     FORCE CONVERGENCE VALUE  = 0.5174E-02  CRITERION= 0.5421E-04
 curEqn=    712  totEqn=    712 Job CP sec=      3.080
      Factor Done= 100% Factor Wall sec=      0.001 rate=    1293.3 Mflops
    EQUIL ITER   4 COMPLETED.  NEW TRIANG MATRIX.  MAX DOF INC=  0.4959E-05
     DISP CONVERGENCE VALUE   = 0.7025E-06  CRITERION= 0.9219E-01 <<< CONVERGED
     LINE SEARCH PARAMETER =  0.1416     SCALED MAX DOF INC =  0.7025E-06
     FORCE CONVERGENCE VALUE  = 0.1941E-01  CRITERION= 0.5531E-04
 curEqn=    712  totEqn=    712 Job CP sec=      3.120
      Factor Done= 100% Factor Wall sec=      0.001 rate=    1343.9 Mflops
    EQUIL ITER   5 COMPLETED.  NEW TRIANG MATRIX.  MAX DOF INC=  0.5550E-06
     DISP CONVERGENCE VALUE   = 0.5550E-06  CRITERION= 0.9407E-01 <<< CONVERGED
     LINE SEARCH PARAMETER =   1.000     SCALED MAX DOF INC =  0.5550E-06
     FORCE CONVERGENCE VALUE  = 0.4249E-02  CRITERION= 0.5644E-04
 curEqn=    712  totEqn=    712 Job CP sec=      3.140
      Factor Done= 100% Factor Wall sec=      0.001 rate=    1354.4 Mflops
    EQUIL ITER   6 COMPLETED.  NEW TRIANG MATRIX.  MAX DOF INC=  0.4069E-05
     DISP CONVERGENCE VALUE   = 0.6417E-06  CRITERION= 0.9599E-01 <<< CONVERGED
     LINE SEARCH PARAMETER =  0.1577     SCALED MAX DOF INC =  0.6417E-06
     FORCE CONVERGENCE VALUE  = 0.1712E-01  CRITERION= 0.5760E-04
 curEqn=    712  totEqn=    712 Job CP sec=      3.180
      Factor Done= 100% Factor Wall sec=      0.001 rate=    1226.5 Mflops
    EQUIL ITER   7 COMPLETED.  NEW TRIANG MATRIX.  MAX DOF INC=  0.5013E-06
     DISP CONVERGENCE VALUE   = 0.5013E-06  CRITERION= 0.9795E-01 <<< CONVERGED
     LINE SEARCH PARAMETER =   1.000     SCALED MAX DOF INC =  0.5013E-06
     FORCE CONVERGENCE VALUE  = 0.3866E-02  CRITERION= 0.5877E-04
 curEqn=    712  totEqn=    712 Job CP sec=      3.200
      Factor Done= 100% Factor Wall sec=      0.001 rate=    1395.0 Mflops
    EQUIL ITER   8 COMPLETED.  NEW TRIANG MATRIX.  MAX DOF INC=  0.3200E-05
     DISP CONVERGENCE VALUE   = 0.6227E-06  CRITERION= 0.1000     <<< CONVERGED
     LINE SEARCH PARAMETER =  0.1946     SCALED MAX DOF INC =  0.6227E-06
     FORCE CONVERGENCE VALUE  = 0.1604E-01  CRITERION= 0.5997E-04
 curEqn=    712  totEqn=    712 Job CP sec=      3.230
      Factor Done= 100% Factor Wall sec=      0.001 rate=    1402.5 Mflops
    EQUIL ITER   9 COMPLETED.  NEW TRIANG MATRIX.  MAX DOF INC=  0.4019E-06
     DISP CONVERGENCE VALUE   = 0.4019E-06  CRITERION= 0.1020     <<< CONVERGED
     LINE SEARCH PARAMETER =   1.000     SCALED MAX DOF INC =  0.4019E-06
     FORCE CONVERGENCE VALUE  = 0.3628E-02  CRITERION= 0.6119E-04
    >>> PREDICTED NUMBER OF ITERATIONS FOR CONVERGENCE=  52 EXCEEDS MAX OF  26
 *** LOAD STEP     1   SUBSTEP     6  NOT COMPLETED.  CUM ITER =     80
 *** BEGIN BISECTION NUMBER   1    NEW TIME INCREMENT=  0.78125E-05

     FORCE CONVERGENCE VALUE  = 0.4300      CRITERION= 0.5102E-04
 curEqn=    712  totEqn=    712 Job CP sec=      3.280
      Factor Done= 100% Factor Wall sec=      0.001 rate=    1313.7 Mflops
     DISP CONVERGENCE VALUE   = 0.1434E-05  CRITERION= 0.8503E-01 <<< CONVERGED
    EQUIL ITER   1 COMPLETED.  NEW TRIANG MATRIX.  MAX DOF INC=  0.1434E-05
     DISP CONVERGENCE VALUE   = 0.1420E-05  CRITERION= 0.8677E-01 <<< CONVERGED
     LINE SEARCH PARAMETER =  0.9907     SCALED MAX DOF INC =  0.1420E-05
     FORCE CONVERGENCE VALUE  = 0.3410E-02  CRITERION= 0.5206E-04
 curEqn=    712  totEqn=    712 Job CP sec=      3.300
      Factor Done= 100% Factor Wall sec=      0.001 rate=    1342.9 Mflops
    EQUIL ITER   2 COMPLETED.  NEW TRIANG MATRIX.  MAX DOF INC=  0.2553E-05
     DISP CONVERGENCE VALUE   = 0.3785E-06  CRITERION= 0.8854E-01 <<< CONVERGED
     LINE SEARCH PARAMETER =  0.1483     SCALED MAX DOF INC =  0.3785E-06
     FORCE CONVERGENCE VALUE  = 0.7459E-02  CRITERION= 0.5312E-04
 curEqn=    712  totEqn=    712 Job CP sec=      3.330
      Factor Done= 100% Factor Wall sec=      0.001 rate=    1307.5 Mflops
    EQUIL ITER   3 COMPLETED.  NEW TRIANG MATRIX.  MAX DOF INC=  0.2563E-06
     DISP CONVERGENCE VALUE   = 0.2563E-06  CRITERION= 0.9035E-01 <<< CONVERGED
     LINE SEARCH PARAMETER =   1.000     SCALED MAX DOF INC =  0.2563E-06
     FORCE CONVERGENCE VALUE  = 0.1875E-02  CRITERION= 0.5421E-04
 curEqn=    712  totEqn=    712 Job CP sec=      3.360
      Factor Done= 100% Factor Wall sec=      0.001 rate=    1334.4 Mflops
    EQUIL ITER   4 COMPLETED.  NEW TRIANG MATRIX.  MAX DOF INC=  0.1807E-05
     DISP CONVERGENCE VALUE   = 0.2531E-06  CRITERION= 0.9219E-01 <<< CONVERGED
     LINE SEARCH PARAMETER =  0.1401     SCALED MAX DOF INC =  0.2531E-06
     FORCE CONVERGENCE VALUE  = 0.7042E-02  CRITERION= 0.5531E-04
 curEqn=    712  totEqn=    712 Job CP sec=      3.400
      Factor Done= 100% Factor Wall sec=      0.001 rate=    1404.6 Mflops
    EQUIL ITER   5 COMPLETED.  NEW TRIANG MATRIX.  MAX DOF INC=  0.2051E-06
     DISP CONVERGENCE VALUE   = 0.2051E-06  CRITERION= 0.9407E-01 <<< CONVERGED
     LINE SEARCH PARAMETER =   1.000     SCALED MAX DOF INC =  0.2051E-06
     FORCE CONVERGENCE VALUE  = 0.1556E-02  CRITERION= 0.5644E-04
 curEqn=    712  totEqn=    712 Job CP sec=      3.420
      Factor Done= 100% Factor Wall sec=      0.001 rate=    1345.2 Mflops
    EQUIL ITER   6 COMPLETED.  NEW TRIANG MATRIX.  MAX DOF INC=  0.1480E-05
     DISP CONVERGENCE VALUE   = 0.2350E-06  CRITERION= 0.9599E-01 <<< CONVERGED
     LINE SEARCH PARAMETER =  0.1587     SCALED MAX DOF INC =  0.2350E-06
     FORCE CONVERGENCE VALUE  = 0.6270E-02  CRITERION= 0.5760E-04
 curEqn=    712  totEqn=    712 Job CP sec=      3.460
      Factor Done= 100% Factor Wall sec=      0.001 rate=    1275.3 Mflops
    EQUIL ITER   7 COMPLETED.  NEW TRIANG MATRIX.  MAX DOF INC=  0.1820E-06
     DISP CONVERGENCE VALUE   = 0.1820E-06  CRITERION= 0.9795E-01 <<< CONVERGED
     LINE SEARCH PARAMETER =   1.000     SCALED MAX DOF INC =  0.1820E-06
     FORCE CONVERGENCE VALUE  = 0.1410E-02  CRITERION= 0.5877E-04
 curEqn=    712  totEqn=    712 Job CP sec=      3.480
      Factor Done= 100% Factor Wall sec=      0.001 rate=    1170.9 Mflops
    EQUIL ITER   8 COMPLETED.  NEW TRIANG MATRIX.  MAX DOF INC=  0.1165E-05
     DISP CONVERGENCE VALUE   = 0.2277E-06  CRITERION= 0.1000     <<< CONVERGED
     LINE SEARCH PARAMETER =  0.1954     SCALED MAX DOF INC =  0.2277E-06
     FORCE CONVERGENCE VALUE  = 0.5861E-02  CRITERION= 0.5997E-04
 curEqn=    712  totEqn=    712 Job CP sec=      3.510
      Factor Done= 100% Factor Wall sec=      0.001 rate=    1336.7 Mflops
    EQUIL ITER   9 COMPLETED.  NEW TRIANG MATRIX.  MAX DOF INC=  0.1466E-06
     DISP CONVERGENCE VALUE   = 0.1466E-06  CRITERION= 0.1020     <<< CONVERGED
     LINE SEARCH PARAMETER =   1.000     SCALED MAX DOF INC =  0.1466E-06
     FORCE CONVERGENCE VALUE  = 0.1329E-02  CRITERION= 0.6119E-04
    >>> PREDICTED NUMBER OF ITERATIONS FOR CONVERGENCE=  52 EXCEEDS MAX OF  26
 *** LOAD STEP     1   SUBSTEP     6  NOT COMPLETED.  CUM ITER =     89
 *** BEGIN BISECTION NUMBER   2    NEW TIME INCREMENT=  0.39063E-05

     FORCE CONVERGENCE VALUE  = 0.5892E-01  CRITERION= 0.5102E-04
 curEqn=    712  totEqn=    712 Job CP sec=      3.550
      Factor Done= 100% Factor Wall sec=      0.001 rate=    1330.1 Mflops
     DISP CONVERGENCE VALUE   = 0.1968E-06  CRITERION= 0.8503E-01 <<< CONVERGED
    EQUIL ITER   1 COMPLETED.  NEW TRIANG MATRIX.  MAX DOF INC=  0.1968E-06
     DISP CONVERGENCE VALUE   = 0.1950E-06  CRITERION= 0.8677E-01 <<< CONVERGED
     LINE SEARCH PARAMETER =  0.9907     SCALED MAX DOF INC =  0.1950E-06
     FORCE CONVERGENCE VALUE  = 0.5670E-03  CRITERION= 0.5206E-04
 curEqn=    712  totEqn=    712 Job CP sec=      3.570
      Factor Done= 100% Factor Wall sec=      0.001 rate=    1290.9 Mflops
    EQUIL ITER   2 COMPLETED.  NEW TRIANG MATRIX.  MAX DOF INC=  0.3384E-06
     DISP CONVERGENCE VALUE   = 0.8285E-07  CRITERION= 0.8854E-01 <<< CONVERGED
     LINE SEARCH PARAMETER =  0.2448     SCALED MAX DOF INC =  0.8285E-07
     FORCE CONVERGENCE VALUE  = 0.1761E-02  CRITERION= 0.5312E-04
 curEqn=    712  totEqn=    712 Job CP sec=      3.610
      Factor Done= 100% Factor Wall sec=      0.001 rate=    1407.0 Mflops
    EQUIL ITER   3 COMPLETED.  NEW TRIANG MATRIX.  MAX DOF INC=  0.6958E-07
     DISP CONVERGENCE VALUE   = 0.6958E-07  CRITERION= 0.9035E-01 <<< CONVERGED
     LINE SEARCH PARAMETER =   1.000     SCALED MAX DOF INC =  0.6958E-07
     FORCE CONVERGENCE VALUE  = 0.3805E-03  CRITERION= 0.5421E-04
 curEqn=    712  totEqn=    712 Job CP sec=      3.640
      Factor Done= 100% Factor Wall sec=      0.001 rate=    1402.9 Mflops
    EQUIL ITER   4 COMPLETED.  NEW TRIANG MATRIX.  MAX DOF INC=  0.1625E-06
     DISP CONVERGENCE VALUE   = 0.5037E-07  CRITERION= 0.9219E-01 <<< CONVERGED
     LINE SEARCH PARAMETER =  0.3100     SCALED MAX DOF INC =  0.5037E-07
     FORCE CONVERGENCE VALUE  = 0.1422E-02  CRITERION= 0.5531E-04
 curEqn=    712  totEqn=    712 Job CP sec=      3.680
      Factor Done= 100% Factor Wall sec=      0.001 rate=    1276.4 Mflops
    EQUIL ITER   5 COMPLETED.  NEW TRIANG MATRIX.  MAX DOF INC= -0.1281E-07
     DISP CONVERGENCE VALUE   = 0.1208E-07  CRITERION= 0.9407E-01 <<< CONVERGED
     LINE SEARCH PARAMETER =  0.9428     SCALED MAX DOF INC = -0.1208E-07
     FORCE CONVERGENCE VALUE  = 0.1385E-03  CRITERION= 0.5644E-04
 curEqn=    712  totEqn=    712 Job CP sec=      3.700
      Factor Done= 100% Factor Wall sec=      0.001 rate=    1385.4 Mflops
    EQUIL ITER   6 COMPLETED.  NEW TRIANG MATRIX.  MAX DOF INC=  0.5503E-07
     DISP CONVERGENCE VALUE   = 0.5503E-07  CRITERION= 0.9599E-01 <<< CONVERGED
     LINE SEARCH PARAMETER =   1.000     SCALED MAX DOF INC =  0.5503E-07
     FORCE CONVERGENCE VALUE  = 0.3665E-03  CRITERION= 0.5760E-04
 curEqn=    712  totEqn=    712 Job CP sec=      3.720
      Factor Done= 100% Factor Wall sec=      0.001 rate=    1352.6 Mflops
    EQUIL ITER   7 COMPLETED.  NEW TRIANG MATRIX.  MAX DOF INC=  0.9170E-07
     DISP CONVERGENCE VALUE   = 0.3496E-07  CRITERION= 0.9795E-01 <<< CONVERGED
     LINE SEARCH PARAMETER =  0.3812     SCALED MAX DOF INC =  0.3496E-07
     FORCE CONVERGENCE VALUE  = 0.8861E-03  CRITERION= 0.5877E-04
 curEqn=    712  totEqn=    712 Job CP sec=      3.770
      Factor Done= 100% Factor Wall sec=      0.001 rate=    1329.3 Mflops
    EQUIL ITER   8 COMPLETED.  NEW TRIANG MATRIX.  MAX DOF INC=  0.8880E-08
     DISP CONVERGENCE VALUE   = 0.8880E-08  CRITERION= 0.1000     <<< CONVERGED
     LINE SEARCH PARAMETER =   1.000     SCALED MAX DOF INC =  0.8880E-08
     FORCE CONVERGENCE VALUE  = 0.1437E-03  CRITERION= 0.5997E-04
 curEqn=    712  totEqn=    712 Job CP sec=      3.810
      Factor Done= 100% Factor Wall sec=      0.001 rate=    1401.1 Mflops
    EQUIL ITER   9 COMPLETED.  NEW TRIANG MATRIX.  MAX DOF INC=  0.8903E-07
     DISP CONVERGENCE VALUE   = 0.3246E-07  CRITERION= 0.1020     <<< CONVERGED
     LINE SEARCH PARAMETER =  0.3647     SCALED MAX DOF INC =  0.3246E-07
     FORCE CONVERGENCE VALUE  = 0.6959E-03  CRITERION= 0.6119E-04
 curEqn=    712  totEqn=    712 Job CP sec=      3.840
      Factor Done= 100% Factor Wall sec=      0.001 rate=    1243.1 Mflops
    EQUIL ITER  10 COMPLETED.  NEW TRIANG MATRIX.  MAX DOF INC=  0.1065E-07
     DISP CONVERGENCE VALUE   = 0.1065E-07  CRITERION= 0.1041     <<< CONVERGED
     LINE SEARCH PARAMETER =   1.000     SCALED MAX DOF INC =  0.1065E-07
     FORCE CONVERGENCE VALUE  = 0.1891E-03  CRITERION= 0.6244E-04
 curEqn=    712  totEqn=    712 Job CP sec=      3.860
      Factor Done= 100% Factor Wall sec=      0.001 rate=    1299.9 Mflops
    EQUIL ITER  11 COMPLETED.  NEW TRIANG MATRIX.  MAX DOF INC=  0.5307E-07
     DISP CONVERGENCE VALUE   = 0.3489E-07  CRITERION= 0.1062     <<< CONVERGED
     LINE SEARCH PARAMETER =  0.6575     SCALED MAX DOF INC =  0.3489E-07
     FORCE CONVERGENCE VALUE  = 0.5772E-03  CRITERION= 0.6372E-04
 curEqn=    712  totEqn=    712 Job CP sec=      3.900
      Factor Done= 100% Factor Wall sec=      0.001 rate=    1394.9 Mflops
    EQUIL ITER  12 COMPLETED.  NEW TRIANG MATRIX.  MAX DOF INC=  0.9805E-08
     DISP CONVERGENCE VALUE   = 0.9805E-08  CRITERION= 0.1084     <<< CONVERGED
     LINE SEARCH PARAMETER =   1.000     SCALED MAX DOF INC =  0.9805E-08
     FORCE CONVERGENCE VALUE  = 0.2280E-03  CRITERION= 0.6502E-04
 curEqn=    712  totEqn=    712 Job CP sec=      3.920
      Factor Done= 100% Factor Wall sec=      0.001 rate=    1342.2 Mflops
    EQUIL ITER  13 COMPLETED.  NEW TRIANG MATRIX.  MAX DOF INC=  0.1839E-07
     DISP CONVERGENCE VALUE   = 0.1839E-07  CRITERION= 0.1106     <<< CONVERGED
     LINE SEARCH PARAMETER =   1.000     SCALED MAX DOF INC =  0.1839E-07
     FORCE CONVERGENCE VALUE  = 0.2422E-03  CRITERION= 0.6634E-04
 curEqn=    712  totEqn=    712 Job CP sec=      3.960
      Factor Done= 100% Factor Wall sec=      0.001 rate=    1147.3 Mflops
    EQUIL ITER  14 COMPLETED.  NEW TRIANG MATRIX.  MAX DOF INC=  0.4087E-08
     DISP CONVERGENCE VALUE   = 0.4087E-08  CRITERION= 0.1128     <<< CONVERGED
     LINE SEARCH PARAMETER =   1.000     SCALED MAX DOF INC =  0.4087E-08
     FORCE CONVERGENCE VALUE  = 0.5179E-04  CRITERION= 0.6770E-04 <<< CONVERGED
    >>> SOLUTION CONVERGED AFTER EQUILIBRIUM ITERATION  14
 *** LOAD STEP     1   SUBSTEP     6  COMPLETED.    CUM ITER =    102
 *** TIME =  0.180078E-02     TIME INC =  0.390625E-05
 *** AUTO STEP TIME:  NEXT TIME INC = 0.39063E-05  UNCHANGED

     FORCE CONVERGENCE VALUE  = 0.3113      CRITERION= 0.5102E-04
 curEqn=    712  totEqn=    712 Job CP sec=      4.000
      Factor Done= 100% Factor Wall sec=      0.001 rate=    1407.7 Mflops
     DISP CONVERGENCE VALUE   = 0.9662E-06  CRITERION= 0.8503E-01 <<< CONVERGED
    EQUIL ITER   1 COMPLETED.  NEW TRIANG MATRIX.  MAX DOF INC=  0.9662E-06
     DISP CONVERGENCE VALUE   = 0.9540E-06  CRITERION= 0.8677E-01 <<< CONVERGED
     LINE SEARCH PARAMETER =  0.9874     SCALED MAX DOF INC =  0.9540E-06
     FORCE CONVERGENCE VALUE  = 0.1992E-02  CRITERION= 0.5206E-04
 curEqn=    712  totEqn=    712 Job CP sec=      4.030
      Factor Done= 100% Factor Wall sec=      0.001 rate=    1404.9 Mflops
    EQUIL ITER   2 COMPLETED.  NEW TRIANG MATRIX.  MAX DOF INC=  0.6437E-06
     DISP CONVERGENCE VALUE   = 0.6437E-06  CRITERION= 0.8854E-01 <<< CONVERGED
     LINE SEARCH PARAMETER =   1.000     SCALED MAX DOF INC =  0.6437E-06
     FORCE CONVERGENCE VALUE  = 0.3449E-02  CRITERION= 0.5312E-04
 curEqn=    712  totEqn=    712 Job CP sec=      4.050
      Factor Done= 100% Factor Wall sec=      0.001 rate=    1407.7 Mflops
    EQUIL ITER   3 COMPLETED.  NEW TRIANG MATRIX.  MAX DOF INC=  0.1217E-05
     DISP CONVERGENCE VALUE   = 0.4001E-06  CRITERION= 0.9035E-01 <<< CONVERGED
     LINE SEARCH PARAMETER =  0.3289     SCALED MAX DOF INC =  0.4001E-06
     FORCE CONVERGENCE VALUE  = 0.1139E-01  CRITERION= 0.5421E-04
 curEqn=    712  totEqn=    712 Job CP sec=      4.090
      Factor Done= 100% Factor Wall sec=      0.001 rate=    1396.8 Mflops
    EQUIL ITER   4 COMPLETED.  NEW TRIANG MATRIX.  MAX DOF INC= -0.1201E-06
     DISP CONVERGENCE VALUE   = 0.1093E-06  CRITERION= 0.9219E-01 <<< CONVERGED
     LINE SEARCH PARAMETER =  0.9104     SCALED MAX DOF INC = -0.1093E-06
     FORCE CONVERGENCE VALUE  = 0.1197E-02  CRITERION= 0.5531E-04
 curEqn=    712  totEqn=    712 Job CP sec=      4.120
      Factor Done= 100% Factor Wall sec=      0.001 rate=    1401.1 Mflops
    EQUIL ITER   5 COMPLETED.  NEW TRIANG MATRIX.  MAX DOF INC=  0.4111E-06
     DISP CONVERGENCE VALUE   = 0.4111E-06  CRITERION= 0.9407E-01 <<< CONVERGED
     LINE SEARCH PARAMETER =   1.000     SCALED MAX DOF INC =  0.4111E-06
     FORCE CONVERGENCE VALUE  = 0.2674E-02  CRITERION= 0.5644E-04
 curEqn=    712  totEqn=    712 Job CP sec=      4.140
      Factor Done= 100% Factor Wall sec=      0.001 rate=    1418.6 Mflops
    EQUIL ITER   6 COMPLETED.  NEW TRIANG MATRIX.  MAX DOF INC=  0.7617E-06
     DISP CONVERGENCE VALUE   = 0.2595E-06  CRITERION= 0.9599E-01 <<< CONVERGED
     LINE SEARCH PARAMETER =  0.3407     SCALED MAX DOF INC =  0.2595E-06
     FORCE CONVERGENCE VALUE  = 0.6714E-02  CRITERION= 0.5760E-04
 curEqn=    712  totEqn=    712 Job CP sec=      4.190
      Factor Done= 100% Factor Wall sec=      0.001 rate=    1326.3 Mflops
    EQUIL ITER   7 COMPLETED.  NEW TRIANG MATRIX.  MAX DOF INC=  0.7309E-07
     DISP CONVERGENCE VALUE   = 0.7309E-07  CRITERION= 0.9795E-01 <<< CONVERGED
     LINE SEARCH PARAMETER =   1.000     SCALED MAX DOF INC =  0.7309E-07
     FORCE CONVERGENCE VALUE  = 0.1073E-02  CRITERION= 0.5877E-04
[...]
 *** AUTO STEP TIME:  NEXT TIME INC = 0.10000E-02  UNCHANGED

     FORCE CONVERGENCE VALUE  = 0.2889E-01  CRITERION= 0.1502    
 curEqn=    712  totEqn=    712 Job CP sec=    263.080
      Factor Done= 100% Factor Wall sec=      0.001 rate=    1144.9 Mflops
     DISP CONVERGENCE VALUE   = 0.2591E-05  CRITERION= 0.8503E-01 <<< CONVERGED
    EQUIL ITER   1 COMPLETED.  NEW TRIANG MATRIX.  MAX DOF INC= -0.2591E-05
     DISP CONVERGENCE VALUE   = 0.9545E-06  CRITERION= 0.8677E-01 <<< CONVERGED
     LINE SEARCH PARAMETER =  0.3684     SCALED MAX DOF INC = -0.9545E-06
     FORCE CONVERGENCE VALUE  = 0.5208E-02  CRITERION= 0.1533     <<< CONVERGED
 curEqn=    712  totEqn=    712 Job CP sec=    263.120
      Factor Done= 100% Factor Wall sec=      0.001 rate=    1139.5 Mflops
    EQUIL ITER   2 COMPLETED.  NEW TRIANG MATRIX.  MAX DOF INC=  0.3305E-06
     DISP CONVERGENCE VALUE   = 0.3305E-06  CRITERION= 0.8854E-01 <<< CONVERGED
     LINE SEARCH PARAMETER =   1.000     SCALED MAX DOF INC =  0.3305E-06
    >>> SOLUTION CONVERGED AFTER EQUILIBRIUM ITERATION   2
 *** LOAD STEP     3   SUBSTEP   988  COMPLETED.    CUM ITER =   6375
 *** TIME =   2.98800         TIME INC =  0.100000E-02
 *** AUTO STEP TIME:  NEXT TIME INC = 0.10000E-02  UNCHANGED

     FORCE CONVERGENCE VALUE  = 0.1200E-01  CRITERION= 0.1499    
 curEqn=    712  totEqn=    712 Job CP sec=    263.180
      Factor Done= 100% Factor Wall sec=      0.001 rate=    1138.3 Mflops
     DISP CONVERGENCE VALUE   = 0.5500E-06  CRITERION= 0.8503E-01 <<< CONVERGED
    EQUIL ITER   1 COMPLETED.  NEW TRIANG MATRIX.  MAX DOF INC= -0.5500E-06
     DISP CONVERGENCE VALUE   = 0.2742E-06  CRITERION= 0.8677E-01 <<< CONVERGED
     LINE SEARCH PARAMETER =  0.4986     SCALED MAX DOF INC = -0.2742E-06
     FORCE CONVERGENCE VALUE  = 0.2760E-02  CRITERION= 0.1530     <<< CONVERGED
 curEqn=    712  totEqn=    712 Job CP sec=    263.220
      Factor Done= 100% Factor Wall sec=      0.001 rate=    1104.4 Mflops
    EQUIL ITER   2 COMPLETED.  NEW TRIANG MATRIX.  MAX DOF INC=  0.4665E-06
     DISP CONVERGENCE VALUE   = 0.4665E-06  CRITERION= 0.8854E-01 <<< CONVERGED
     LINE SEARCH PARAMETER =   1.000     SCALED MAX DOF INC =  0.4665E-06
    >>> SOLUTION CONVERGED AFTER EQUILIBRIUM ITERATION   2
 *** LOAD STEP     3   SUBSTEP   989  COMPLETED.    CUM ITER =   6377
 *** TIME =   2.98900         TIME INC =  0.100000E-02
 *** AUTO STEP TIME:  NEXT TIME INC = 0.10000E-02  UNCHANGED

     FORCE CONVERGENCE VALUE  = 0.1853E-01  CRITERION= 0.1496    
 curEqn=    712  totEqn=    712 Job CP sec=    263.270
      Factor Done= 100% Factor Wall sec=      0.001 rate=    1127.4 Mflops
     DISP CONVERGENCE VALUE   = 0.1804E-05  CRITERION= 0.8503E-01 <<< CONVERGED
    EQUIL ITER   1 COMPLETED.  NEW TRIANG MATRIX.  MAX DOF INC= -0.1804E-05
     DISP CONVERGENCE VALUE   = 0.6667E-06  CRITERION= 0.8677E-01 <<< CONVERGED
     LINE SEARCH PARAMETER =  0.3696     SCALED MAX DOF INC = -0.6667E-06
     FORCE CONVERGENCE VALUE  = 0.2812E-02  CRITERION= 0.1527     <<< CONVERGED
 curEqn=    712  totEqn=    712 Job CP sec=    263.320
      Factor Done= 100% Factor Wall sec=      0.001 rate=    1129.8 Mflops
    EQUIL ITER   2 COMPLETED.  NEW TRIANG MATRIX.  MAX DOF INC=  0.1797E-06
     DISP CONVERGENCE VALUE   = 0.1797E-06  CRITERION= 0.8854E-01 <<< CONVERGED
     LINE SEARCH PARAMETER =   1.000     SCALED MAX DOF INC =  0.1797E-06
    >>> SOLUTION CONVERGED AFTER EQUILIBRIUM ITERATION   2
 *** LOAD STEP     3   SUBSTEP   990  COMPLETED.    CUM ITER =   6379
 *** TIME =   2.99000         TIME INC =  0.100000E-02
 *** AUTO STEP TIME:  NEXT TIME INC = 0.10000E-02  UNCHANGED

     FORCE CONVERGENCE VALUE  = 0.8681E-02  CRITERION= 0.1493    
 curEqn=    712  totEqn=    712 Job CP sec=    263.380
      Factor Done= 100% Factor Wall sec=      0.001 rate=    1130.4 Mflops
     DISP CONVERGENCE VALUE   = 0.6973E-06  CRITERION= 0.8503E-01 <<< CONVERGED
    EQUIL ITER   1 COMPLETED.  NEW TRIANG MATRIX.  MAX DOF INC= -0.6973E-06
     DISP CONVERGENCE VALUE   = 0.2901E-06  CRITERION= 0.8677E-01 <<< CONVERGED
     LINE SEARCH PARAMETER =  0.4161     SCALED MAX DOF INC = -0.2901E-06
     FORCE CONVERGENCE VALUE  = 0.1557E-02  CRITERION= 0.1524     <<< CONVERGED
 curEqn=    712  totEqn=    712 Job CP sec=    263.420
      Factor Done= 100% Factor Wall sec=      0.001 rate=    1128.8 Mflops
    EQUIL ITER   2 COMPLETED.  NEW TRIANG MATRIX.  MAX DOF INC=  0.1929E-06
     DISP CONVERGENCE VALUE   = 0.1929E-06  CRITERION= 0.8854E-01 <<< CONVERGED
     LINE SEARCH PARAMETER =   1.000     SCALED MAX DOF INC =  0.1929E-06
    >>> SOLUTION CONVERGED AFTER EQUILIBRIUM ITERATION   2
 *** LOAD STEP     3   SUBSTEP   991  COMPLETED.    CUM ITER =   6381
 *** TIME =   2.99100         TIME INC =  0.100000E-02
 *** AUTO STEP TIME:  NEXT TIME INC = 0.10000E-02  UNCHANGED

     FORCE CONVERGENCE VALUE  = 0.1284E-01  CRITERION= 0.1490    
 curEqn=    712  totEqn=    712 Job CP sec=    263.480
      Factor Done= 100% Factor Wall sec=      0.001 rate=    1128.3 Mflops
     DISP CONVERGENCE VALUE   = 0.1285E-05  CRITERION= 0.8503E-01 <<< CONVERGED
    EQUIL ITER   1 COMPLETED.  NEW TRIANG MATRIX.  MAX DOF INC= -0.1285E-05
     DISP CONVERGENCE VALUE   = 0.4848E-06  CRITERION= 0.8677E-01 <<< CONVERGED
     LINE SEARCH PARAMETER =  0.3773     SCALED MAX DOF INC = -0.4848E-06
     FORCE CONVERGENCE VALUE  = 0.1799E-02  CRITERION= 0.1521     <<< CONVERGED
 curEqn=    712  totEqn=    712 Job CP sec=    263.520
      Factor Done= 100% Factor Wall sec=      0.001 rate=    1138.6 Mflops
    EQUIL ITER   2 COMPLETED.  NEW TRIANG MATRIX.  MAX DOF INC=  0.1342E-06
     DISP CONVERGENCE VALUE   = 0.1342E-06  CRITERION= 0.8854E-01 <<< CONVERGED
     LINE SEARCH PARAMETER =   1.000     SCALED MAX DOF INC =  0.1342E-06
    >>> SOLUTION CONVERGED AFTER EQUILIBRIUM ITERATION   2
 *** LOAD STEP     3   SUBSTEP   992  COMPLETED.    CUM ITER =   6383
 *** TIME =   2.99200         TIME INC =  0.100000E-02
 *** AUTO STEP TIME:  NEXT TIME INC = 0.10000E-02  UNCHANGED

     FORCE CONVERGENCE VALUE  = 0.1105E-01  CRITERION= 0.1487    
 curEqn=    712  totEqn=    712 Job CP sec=    263.580
      Factor Done= 100% Factor Wall sec=      0.001 rate=    1127.7 Mflops
     DISP CONVERGENCE VALUE   = 0.9847E-06  CRITERION= 0.8503E-01 <<< CONVERGED
    EQUIL ITER   1 COMPLETED.  NEW TRIANG MATRIX.  MAX DOF INC= -0.9847E-06
     DISP CONVERGENCE VALUE   = 0.3873E-06  CRITERION= 0.8677E-01 <<< CONVERGED
     LINE SEARCH PARAMETER =  0.3933     SCALED MAX DOF INC = -0.3873E-06
     FORCE CONVERGENCE VALUE  = 0.1888E-02  CRITERION= 0.1518     <<< CONVERGED
 curEqn=    712  totEqn=    712 Job CP sec=    263.620
      Factor Done= 100% Factor Wall sec=      0.001 rate=    1143.4 Mflops
    EQUIL ITER   2 COMPLETED.  NEW TRIANG MATRIX.  MAX DOF INC=  0.1736E-06
     DISP CONVERGENCE VALUE   = 0.1736E-06  CRITERION= 0.8854E-01 <<< CONVERGED
     LINE SEARCH PARAMETER =   1.000     SCALED MAX DOF INC =  0.1736E-06
    >>> SOLUTION CONVERGED AFTER EQUILIBRIUM ITERATION   2
 *** LOAD STEP     3   SUBSTEP   993  COMPLETED.    CUM ITER =   6385
 *** TIME =   2.99300         TIME INC =  0.100000E-02
 *** AUTO STEP TIME:  NEXT TIME INC = 0.10000E-02  UNCHANGED

     FORCE CONVERGENCE VALUE  = 0.1283E-01  CRITERION= 0.1484    
 curEqn=    712  totEqn=    712 Job CP sec=    263.690
      Factor Done= 100% Factor Wall sec=      0.001 rate=    1128.5 Mflops
     DISP CONVERGENCE VALUE   = 0.1158E-05  CRITERION= 0.8503E-01 <<< CONVERGED
    EQUIL ITER   1 COMPLETED.  NEW TRIANG MATRIX.  MAX DOF INC= -0.1158E-05
     DISP CONVERGENCE VALUE   = 0.4494E-06  CRITERION= 0.8677E-01 <<< CONVERGED
     LINE SEARCH PARAMETER =  0.3883     SCALED MAX DOF INC = -0.4494E-06
     FORCE CONVERGENCE VALUE  = 0.2217E-02  CRITERION= 0.1515     <<< CONVERGED
 curEqn=    712  totEqn=    712 Job CP sec=    263.730
      Factor Done= 100% Factor Wall sec=      0.001 rate=    1127.4 Mflops
    EQUIL ITER   2 COMPLETED.  NEW TRIANG MATRIX.  MAX DOF INC=  0.1824E-06
     DISP CONVERGENCE VALUE   = 0.1824E-06  CRITERION= 0.8854E-01 <<< CONVERGED
     LINE SEARCH PARAMETER =   1.000     SCALED MAX DOF INC =  0.1824E-06
    >>> SOLUTION CONVERGED AFTER EQUILIBRIUM ITERATION   2
 *** LOAD STEP     3   SUBSTEP   994  COMPLETED.    CUM ITER =   6387
 *** TIME =   2.99400         TIME INC =  0.100000E-02
 *** AUTO STEP TIME:  NEXT TIME INC = 0.10000E-02  UNCHANGED

     FORCE CONVERGENCE VALUE  = 0.1248E-01  CRITERION= 0.1481    
 curEqn=    712  totEqn=    712 Job CP sec=    263.780
      Factor Done= 100% Factor Wall sec=      0.001 rate=    1138.1 Mflops
     DISP CONVERGENCE VALUE   = 0.1082E-05  CRITERION= 0.8503E-01 <<< CONVERGED
    EQUIL ITER   1 COMPLETED.  NEW TRIANG MATRIX.  MAX DOF INC= -0.1082E-05
     DISP CONVERGENCE VALUE   = 0.4265E-06  CRITERION= 0.8677E-01 <<< CONVERGED
     LINE SEARCH PARAMETER =  0.3943     SCALED MAX DOF INC = -0.4265E-06
     FORCE CONVERGENCE VALUE  = 0.2278E-02  CRITERION= 0.1512     <<< CONVERGED
 curEqn=    712  totEqn=    712 Job CP sec=    263.830
      Factor Done= 100% Factor Wall sec=      0.001 rate=    1127.3 Mflops
    EQUIL ITER   2 COMPLETED.  NEW TRIANG MATRIX.  MAX DOF INC=  0.1982E-06
     DISP CONVERGENCE VALUE   = 0.1982E-06  CRITERION= 0.8854E-01 <<< CONVERGED
     LINE SEARCH PARAMETER =   1.000     SCALED MAX DOF INC =  0.1982E-06
    >>> SOLUTION CONVERGED AFTER EQUILIBRIUM ITERATION   2
 *** LOAD STEP     3   SUBSTEP   995  COMPLETED.    CUM ITER =   6389
 *** TIME =   2.99500         TIME INC =  0.100000E-02
 *** AUTO STEP TIME:  NEXT TIME INC = 0.10000E-02  UNCHANGED

     FORCE CONVERGENCE VALUE  = 0.1268E-01  CRITERION= 0.1478    
 curEqn=    712  totEqn=    712 Job CP sec=    263.900
      Factor Done= 100% Factor Wall sec=      0.001 rate=    1138.6 Mflops
     DISP CONVERGENCE VALUE   = 0.1119E-05  CRITERION= 0.8503E-01 <<< CONVERGED
    EQUIL ITER   1 COMPLETED.  NEW TRIANG MATRIX.  MAX DOF INC= -0.1119E-05
     DISP CONVERGENCE VALUE   = 0.4401E-06  CRITERION= 0.8677E-01 <<< CONVERGED
     LINE SEARCH PARAMETER =  0.3934     SCALED MAX DOF INC = -0.4401E-06
     FORCE CONVERGENCE VALUE  = 0.2276E-02  CRITERION= 0.1509     <<< CONVERGED
 curEqn=    712  totEqn=    712 Job CP sec=    263.940
      Factor Done= 100% Factor Wall sec=      0.001 rate=    1136.9 Mflops
    EQUIL ITER   2 COMPLETED.  NEW TRIANG MATRIX.  MAX DOF INC=  0.1934E-06
     DISP CONVERGENCE VALUE   = 0.1934E-06  CRITERION= 0.8854E-01 <<< CONVERGED
     LINE SEARCH PARAMETER =   1.000     SCALED MAX DOF INC =  0.1934E-06
    >>> SOLUTION CONVERGED AFTER EQUILIBRIUM ITERATION   2
 *** LOAD STEP     3   SUBSTEP   996  COMPLETED.    CUM ITER =   6391
 *** TIME =   2.99600         TIME INC =  0.100000E-02
 *** AUTO STEP TIME:  NEXT TIME INC = 0.10000E-02  UNCHANGED

     FORCE CONVERGENCE VALUE  = 0.1226E-01  CRITERION= 0.1475    
 curEqn=    712  totEqn=    712 Job CP sec=    263.990
      Factor Done= 100% Factor Wall sec=      0.001 rate=    1093.0 Mflops
     DISP CONVERGENCE VALUE   = 0.1085E-05  CRITERION= 0.8503E-01 <<< CONVERGED
    EQUIL ITER   1 COMPLETED.  NEW TRIANG MATRIX.  MAX DOF INC= -0.1085E-05
     DISP CONVERGENCE VALUE   = 0.4291E-06  CRITERION= 0.8677E-01 <<< CONVERGED
     LINE SEARCH PARAMETER =  0.3956     SCALED MAX DOF INC = -0.4291E-06
     FORCE CONVERGENCE VALUE  = 0.2184E-02  CRITERION= 0.1505     <<< CONVERGED
 curEqn=    712  totEqn=    712 Job CP sec=    264.030
      Factor Done= 100% Factor Wall sec=      0.001 rate=    1029.4 Mflops
    EQUIL ITER   2 COMPLETED.  NEW TRIANG MATRIX.  MAX DOF INC=  0.1892E-06
     DISP CONVERGENCE VALUE   = 0.1892E-06  CRITERION= 0.8854E-01 <<< CONVERGED
     LINE SEARCH PARAMETER =   1.000     SCALED MAX DOF INC =  0.1892E-06
    >>> SOLUTION CONVERGED AFTER EQUILIBRIUM ITERATION   2
 *** LOAD STEP     3   SUBSTEP   997  COMPLETED.    CUM ITER =   6393
 *** TIME =   2.99700         TIME INC =  0.100000E-02
 *** AUTO STEP TIME:  NEXT TIME INC = 0.10000E-02  UNCHANGED

     FORCE CONVERGENCE VALUE  = 0.1213E-01  CRITERION= 0.1472    
 curEqn=    712  totEqn=    712 Job CP sec=    264.100
      Factor Done= 100% Factor Wall sec=      0.001 rate=    1126.9 Mflops
     DISP CONVERGENCE VALUE   = 0.1087E-05  CRITERION= 0.8503E-01 <<< CONVERGED
    EQUIL ITER   1 COMPLETED.  NEW TRIANG MATRIX.  MAX DOF INC= -0.1087E-05
     DISP CONVERGENCE VALUE   = 0.4306E-06  CRITERION= 0.8677E-01 <<< CONVERGED
     LINE SEARCH PARAMETER =  0.3960     SCALED MAX DOF INC = -0.4306E-06
     FORCE CONVERGENCE VALUE  = 0.2123E-02  CRITERION= 0.1502     <<< CONVERGED
 curEqn=    712  totEqn=    712 Job CP sec=    264.140
      Factor Done= 100% Factor Wall sec=      0.001 rate=     748.5 Mflops
    EQUIL ITER   2 COMPLETED.  NEW TRIANG MATRIX.  MAX DOF INC=  0.1833E-06
     DISP CONVERGENCE VALUE   = 0.1833E-06  CRITERION= 0.8854E-01 <<< CONVERGED
     LINE SEARCH PARAMETER =   1.000     SCALED MAX DOF INC =  0.1833E-06
    >>> SOLUTION CONVERGED AFTER EQUILIBRIUM ITERATION   2
 *** LOAD STEP     3   SUBSTEP   998  COMPLETED.    CUM ITER =   6395
 *** TIME =   2.99800         TIME INC =  0.100000E-02
 *** AUTO STEP TIME:  NEXT TIME INC = 0.10000E-02  UNCHANGED

     FORCE CONVERGENCE VALUE  = 0.1194E-01  CRITERION= 0.1469    
 curEqn=    712  totEqn=    712 Job CP sec=    264.190
      Factor Done= 100% Factor Wall sec=      0.001 rate=    1129.1 Mflops
     DISP CONVERGENCE VALUE   = 0.1073E-05  CRITERION= 0.8503E-01 <<< CONVERGED
    EQUIL ITER   1 COMPLETED.  NEW TRIANG MATRIX.  MAX DOF INC= -0.1073E-05
     DISP CONVERGENCE VALUE   = 0.4269E-06  CRITERION= 0.8677E-01 <<< CONVERGED
     LINE SEARCH PARAMETER =  0.3977     SCALED MAX DOF INC = -0.4269E-06
     FORCE CONVERGENCE VALUE  = 0.2085E-02  CRITERION= 0.1499     <<< CONVERGED
 curEqn=    712  totEqn=    712 Job CP sec=    264.240
      Factor Done= 100% Factor Wall sec=      0.001 rate=    1140.7 Mflops
    EQUIL ITER   2 COMPLETED.  NEW TRIANG MATRIX.  MAX DOF INC=  0.1817E-06
     DISP CONVERGENCE VALUE   = 0.1817E-06  CRITERION= 0.8854E-01 <<< CONVERGED
     LINE SEARCH PARAMETER =   1.000     SCALED MAX DOF INC =  0.1817E-06
    >>> SOLUTION CONVERGED AFTER EQUILIBRIUM ITERATION   2
 *** LOAD STEP     3   SUBSTEP   999  COMPLETED.    CUM ITER =   6397
 *** TIME =   2.99900         TIME INC =  0.100000E-02
 *** AUTO STEP TIME:  NEXT TIME INC = 0.10000E-02  UNCHANGED

     FORCE CONVERGENCE VALUE  = 0.1189E-01  CRITERION= 0.1466    
 curEqn=    712  totEqn=    712 Job CP sec=    264.310
      Factor Done= 100% Factor Wall sec=      0.001 rate=    1026.6 Mflops
     DISP CONVERGENCE VALUE   = 0.1071E-05  CRITERION= 0.8503E-01 <<< CONVERGED
    EQUIL ITER   1 COMPLETED.  NEW TRIANG MATRIX.  MAX DOF INC= -0.1071E-05
     DISP CONVERGENCE VALUE   = 0.4275E-06  CRITERION= 0.8677E-01 <<< CONVERGED
     LINE SEARCH PARAMETER =  0.3990     SCALED MAX DOF INC = -0.4275E-06
     FORCE CONVERGENCE VALUE  = 0.2076E-02  CRITERION= 0.1496     <<< CONVERGED
 curEqn=    712  totEqn=    712 Job CP sec=    264.350
      Factor Done= 100% Factor Wall sec=      0.001 rate=    1124.9 Mflops
    EQUIL ITER   2 COMPLETED.  NEW TRIANG MATRIX.  MAX DOF INC=  0.1814E-06
     DISP CONVERGENCE VALUE   = 0.1814E-06  CRITERION= 0.8854E-01 <<< CONVERGED
     LINE SEARCH PARAMETER =   1.000     SCALED MAX DOF INC =  0.1814E-06
    >>> SOLUTION CONVERGED AFTER EQUILIBRIUM ITERATION   2
 *** LOAD STEP     3   SUBSTEP  1000  COMPLETED.    CUM ITER =   6399
 *** TIME =   3.00000         TIME INC =  0.100000E-02

 SOLU_LS4:

 *GET  WALL2     FROM  ACTI  ITEM=TIME WALL  VALUE=  15.6522222    

 SOLU_LS4:

 *GET  CPU2      FROM  ACTI  ITEM=TIME CPU   VALUE=  264.598938    

 SOLU_LS4:

 PARAMETER DELTAWLL =    0.1461111111    

 SOLU_LS4:

 PARAMETER DELTACPU =    0.7334904778E-01

 SOLU_LS4:

 FINISH SOLUTION PROCESSING


 ***** ROUTINE COMPLETED *****  CP =       264.608



 *** NOTE ***                            CP =     264.608   TIME= 15:39:08
 A total of 9 warnings and errors written to                             
 /home/cs1bdh/sharc/bench5.smp.1/output.err.                             

 BEGIN:

 BEGIN:

 /OUTPUT FILE= bench5.dat

 BEGIN:

 BEGIN:

 BEGIN:

 BEGIN:

 BEGIN:

 BEGIN:

 ***** END OF INPUT ENCOUNTERED *****

 PURGE ALL SOLUTION AND POST DATA
 SAVE ALL MODEL DATA

 ALL CURRENT ANSYS DATA WRITTEN TO FILE NAME= output.db
  FOR POSSIBLE RESUME FROM THIS POINT


 NUMBER OF WARNING MESSAGES ENCOUNTERED=          9
 NUMBER OF ERROR   MESSAGES ENCOUNTERED=          0

 DATA INPUT WRITTEN ON /home/cs1bdh/sharc/bench5.smp.1/output.log                                                                                                                                                                                                                          

+--------------------- A N S Y S   S T A T I S T I C S ------------------------+

Release: Release 16.1       Build: 16.1       Update: UP20150325   Platform: LINUX x64   
Date Run: 11/30/2017   Time: 15:39

Processor Model: Intel(R) Xeon(R) CPU E5-2630 v4 @ 2.20GHz

Compiler: Intel(R) FORTRAN Compiler Version 14.0.0  (Build: 20140422)
          Intel(R) C/C++ Compiler Version 14.0.0  (Build: 20140422)
          Intel(R) Math Kernel Library Version 11.1.3 Product Build 20140917

Total number of cores available         :   20
Number of physical cores available      :   20
Number of processes requested           :    1
Number of threads per process requested :    1
Total number of cores requested         :    1 (Shared Memory Parallel)                    

GPU Acceleration: Not Requested

Job Name: output
Working Directory: /home/cs1bdh/sharc/bench5.smp.1

Total CPU time for main thread                    :      247.5 seconds
Total CPU time summed for all threads             :      264.6 seconds

Elapsed time spent pre-processing model (/PREP7)  :        0.5 seconds
Elapsed time spent solution - preprocessing       :        0.2 seconds
Elapsed time spent computing solution             :      517.3 seconds
Elapsed time spent solution - postprocessing      :        0.0 seconds
Elapsed time spent post-processing model (/POST1) :        0.0 seconds

Maximum total memory used                         :       23.0 MB
Maximum total memory allocated                    :    24000.0 MB
Maximum total memory available                    :        504 GB

+------------------ E N D   A N S Y S   S T A T I S T I C S -------------------+


 *---------------------------------------------------------------------------*
 |                                                                           |
 |                            ANSYS RUN COMPLETED                            |
 |                                                                           |
 |---------------------------------------------------------------------------|
 |                                                                           |
 | Ansys Release 16.1          Build 16.1         UP20150325     LINUX x64   |
 |                                                                           |
 |---------------------------------------------------------------------------|
 |                                                                           |
 | Database Requested(-db)  1024 MB    Scratch Memory Requested     22912 MB |
 | Maximum Database Used       1 MB    Maximum Scratch Memory Used     22 MB |
 |                                                                           |
 |---------------------------------------------------------------------------|
 |                                                                           |
 |        CP Time      (sec) =        264.623       Time  =  15:39:08        |
 |        Elapsed Time (sec) =        535.000       Date  =  11/30/2017      |
 |                                                                           |
 *---------------------------------------------------------------------------*
Total time spent so far is  8  Minutes     55  Seconds.
